  Page 1                                    Fri May  9 12:30:15 2025

  ******************************************************************
  *                           E P A N E T                          *
  *                   Hydraulic and Water Quality                  *
  *                   Analysis for Pipe Networks                   *
  *                         Version 2.2                            *
  ******************************************************************
  
  Analysis begun Fri May  9 12:30:15 2025

  WARNING: Negative pressures at 0:00:00 hrs.
   
  WARNING: Negative pressures at 0:00:00 hrs.
   
  WARNING: Negative pressures at 0:00:00 hrs.
   
  WARNING: Negative pressures at 0:00:00 hrs.
   
  WARNING: Negative pressures at 0:00:00 hrs.
   
  WARNING: Negative pressures at 0:00:00 hrs.
   
  WARNING: Negative pressures at 0:00:00 hrs.
   
  WARNING: Negative pressures at 0:00:00 hrs.
   
  WARNING: Negative pressures at 0:00:00 hrs.
   
  WARNING: Negative pressures at 0:00:00 hrs.
   
  WARNING: Negative pressures at 0:00:00 hrs.
   
  WARNING: Negative pressures at 0:00:00 hrs.
   
  WARNING: Negative pressures at 0:00:00 hrs.
   
  WARNING: Negative pressures at 0:00:00 hrs.
   
  WARNING: Negative pressures at 0:00:00 hrs.
   
  WARNING: Negative pressures at 0:00:00 hrs.
   
  WARNING: Negative pressures at 0:00:00 hrs.
   
  WARNING: Negative pressures at 0:00:00 hrs.
   
  WARNING: Negative pressures at 0:00:00 hrs.
   
  WARNING: Negative pressures at 0:00:00 hrs.
   
  WARNING: Negative pressures at 0:00:00 hrs.
   
  WARNING: Negative pressures at 0:00:00 hrs.
   
  WARNING: Negative pressures at 0:00:00 hrs.
   
  WARNING: Negative pressures at 0:00:00 hrs.
   
  WARNING: Negative pressures at 0:00:00 hrs.
   
  WARNING: Negative pressures at 0:00:00 hrs.
   
  WARNING: Negative pressures at 0:00:00 hrs.
   
  WARNING: Negative pressures at 0:00:00 hrs.
   
  WARNING: Negative pressures at 0:00:00 hrs.
   
  WARNING: Negative pressures at 0:00:00 hrs.
   
  WARNING: Negative pressures at 0:00:00 hrs.
   
  WARNING: Negative pressures at 0:00:00 hrs.
   
  WARNING: Negative pressures at 0:00:00 hrs.
   
  WARNING: Negative pressures at 0:00:00 hrs.
   
  WARNING: Negative pressures at 0:00:00 hrs.
   
  WARNING: Negative pressures at 0:00:00 hrs.
   
  WARNING: Negative pressures at 0:00:00 hrs.
   
  WARNING: Negative pressures at 0:00:00 hrs.
   
  WARNING: Negative pressures at 0:00:00 hrs.
   
  WARNING: Negative pressures at 0:00:00 hrs.
   
  WARNING: Negative pressures at 0:00:00 hrs.
   
  WARNING: Negative pressures at 0:00:00 hrs.
   
  WARNING: Negative pressures at 0:00:00 hrs.
   
  WARNING: Negative pressures at 0:00:00 hrs.
   
  WARNING: Negative pressures at 0:00:00 hrs.
   
  WARNING: Negative pressures at 0:00:00 hrs.
   
  WARNING: Negative pressures at 0:00:00 hrs.
   
  WARNING: Negative pressures at 0:00:00 hrs.
   
  WARNING: Negative pressures at 0:00:00 hrs.
   
  WARNING: Negative pressures at 0:00:00 hrs.
   
  WARNING: Negative pressures at 0:00:00 hrs.
   
  WARNING: Negative pressures at 0:00:00 hrs.
   
  WARNING: Negative pressures at 0:00:00 hrs.
   
  WARNING: Negative pressures at 0:00:00 hrs.
   
  WARNING: Negative pressures at 0:00:00 hrs.
   
  WARNING: Negative pressures at 0:00:00 hrs.
   
  WARNING: Negative pressures at 0:00:00 hrs.
   
  WARNING: Negative pressures at 0:00:00 hrs.
   
  WARNING: Negative pressures at 0:00:00 hrs.
   
  WARNING: Negative pressures at 0:00:00 hrs.
   
  WARNING: Negative pressures at 0:00:00 hrs.
   
  WARNING: Negative pressures at 0:00:00 hrs.
   
  WARNING: Negative pressures at 0:00:00 hrs.
   
  WARNING: Negative pressures at 0:00:00 hrs.
   
  WARNING: Negative pressures at 0:00:00 hrs.
   
  WARNING: Negative pressures at 0:00:00 hrs.
   
  WARNING: Negative pressures at 0:00:00 hrs.
   
  WARNING: Negative pressures at 0:00:00 hrs.
   
  WARNING: Negative pressures at 0:00:00 hrs.
   
  WARNING: Negative pressures at 0:00:00 hrs.
   
  WARNING: Negative pressures at 0:00:00 hrs.
   
  WARNING: Negative pressures at 0:00:00 hrs.
   
  WARNING: Negative pressures at 0:00:00 hrs.
   
  WARNING: Negative pressures at 0:00:00 hrs.
   
  WARNING: Negative pressures at 0:00:00 hrs.
   
  WARNING: Negative pressures at 0:00:00 hrs.
   
  WARNING: Negative pressures at 0:00:00 hrs.
   
  WARNING: Negative pressures at 0:00:00 hrs.
   
  WARNING: Negative pressures at 0:00:00 hrs.
   
  WARNING: Negative pressures at 0:00:00 hrs.
   
  WARNING: Negative pressures at 0:00:00 hrs.
   
  WARNING: Negative pressures at 0:00:00 hrs.
   
  WARNING: Negative pressures at 0:00:00 hrs.
   
  WARNING: Negative pressures at 0:00:00 hrs.
   
  WARNING: Negative pressures at 0:00:00 hrs.
   
  WARNING: Negative pressures at 0:00:00 hrs.
   
  WARNING: Negative pressures at 0:00:00 hrs.
   
  WARNING: Negative pressures at 0:00:00 hrs.
   
  WARNING: Negative pressures at 0:00:00 hrs.
   
  WARNING: Negative pressures at 0:00:00 hrs.
   
  WARNING: Negative pressures at 0:00:00 hrs.
   
  WARNING: Negative pressures at 0:00:00 hrs.
   
  WARNING: Negative pressures at 0:00:00 hrs.
   
  WARNING: Negative pressures at 0:00:00 hrs.
   
  WARNING: Negative pressures at 0:00:00 hrs.
   
  WARNING: Negative pressures at 0:00:00 hrs.
   
  WARNING: Negative pressures at 0:00:00 hrs.
   
  WARNING: Negative pressures at 0:00:00 hrs.
   
  WARNING: Negative pressures at 0:00:00 hrs.
   
  WARNING: Negative pressures at 0:00:00 hrs.
   
  WARNING: Negative pressures at 0:00:00 hrs.
   
  WARNING: Negative pressures at 0:00:00 hrs.
   
  WARNING: Negative pressures at 0:00:00 hrs.
   
  WARNING: Negative pressures at 0:00:00 hrs.
   
  WARNING: Negative pressures at 0:00:00 hrs.
   
  WARNING: Negative pressures at 0:00:00 hrs.
   
  WARNING: Negative pressures at 0:00:00 hrs.
   
  WARNING: Negative pressures at 0:00:00 hrs.
   
  WARNING: Negative pressures at 0:00:00 hrs.
   
  WARNING: Negative pressures at 0:00:00 hrs.
   
  WARNING: Negative pressures at 0:00:00 hrs.
   
  WARNING: Negative pressures at 0:00:00 hrs.
   
  WARNING: Negative pressures at 0:00:00 hrs.
   
  WARNING: Negative pressures at 0:00:00 hrs.
   
  WARNING: Negative pressures at 0:00:00 hrs.
   
  WARNING: Negative pressures at 0:00:00 hrs.
   
  WARNING: Negative pressures at 0:00:00 hrs.
   
  WARNING: Negative pressures at 0:00:00 hrs.
   
  WARNING: Negative pressures at 0:00:00 hrs.
   
  WARNING: Negative pressures at 0:00:00 hrs.
   
  WARNING: Negative pressures at 0:00:00 hrs.
   
  WARNING: Negative pressures at 0:00:00 hrs.
   
  WARNING: Negative pressures at 0:00:00 hrs.
   
  WARNING: Negative pressures at 0:00:00 hrs.
   
  WARNING: Negative pressures at 0:00:00 hrs.
   
  WARNING: Negative pressures at 0:00:00 hrs.
   
  WARNING: Negative pressures at 0:00:00 hrs.
   
  WARNING: Negative pressures at 0:00:00 hrs.
   
  WARNING: Negative pressures at 0:00:00 hrs.
   
  WARNING: Negative pressures at 0:00:00 hrs.
   
  WARNING: Negative pressures at 0:00:00 hrs.
   
  WARNING: Negative pressures at 0:00:00 hrs.
   
  WARNING: Negative pressures at 0:00:00 hrs.
   
  WARNING: Negative pressures at 0:00:00 hrs.
   
  WARNING: Negative pressures at 0:00:00 hrs.
   
  WARNING: Negative pressures at 0:00:00 hrs.
   
  WARNING: Negative pressures at 0:00:00 hrs.
   
  WARNING: Negative pressures at 0:00:00 hrs.
   
  WARNING: Negative pressures at 0:00:00 hrs.
   
  WARNING: Negative pressures at 0:00:00 hrs.
   
  WARNING: Negative pressures at 0:00:00 hrs.
   
  WARNING: Negative pressures at 0:00:00 hrs.
   
  WARNING: Negative pressures at 0:00:00 hrs.
   
  WARNING: Negative pressures at 0:00:00 hrs.
   
  WARNING: Negative pressures at 0:00:00 hrs.
   
  WARNING: Negative pressures at 0:00:00 hrs.
   
  WARNING: Negative pressures at 0:00:00 hrs.
   
  WARNING: Negative pressures at 0:00:00 hrs.
   
  WARNING: Negative pressures at 0:00:00 hrs.
   
  WARNING: Negative pressures at 0:00:00 hrs.
   
  WARNING: Negative pressures at 0:00:00 hrs.
   
  WARNING: Negative pressures at 0:00:00 hrs.
   
  WARNING: Negative pressures at 0:00:00 hrs.
   
  WARNING: Negative pressures at 0:00:00 hrs.
   
  WARNING: Negative pressures at 0:00:00 hrs.
   
  WARNING: Negative pressures at 0:00:00 hrs.
   
  WARNING: Negative pressures at 0:00:00 hrs.
   
  WARNING: Negative pressures at 0:00:00 hrs.
   
  WARNING: Negative pressures at 0:00:00 hrs.
   
  WARNING: Negative pressures at 0:00:00 hrs.
   
  WARNING: Negative pressures at 0:00:00 hrs.
   
  WARNING: Negative pressures at 0:00:00 hrs.
   
  WARNING: Negative pressures at 0:00:00 hrs.
   
  WARNING: Negative pressures at 0:00:00 hrs.
   
  WARNING: Negative pressures at 0:00:00 hrs.
   
  WARNING: Negative pressures at 0:00:00 hrs.
   
  WARNING: Negative pressures at 0:00:00 hrs.
   
  WARNING: Negative pressures at 0:00:00 hrs.
   
  WARNING: Negative pressures at 0:00:00 hrs.
   
  WARNING: Negative pressures at 0:00:00 hrs.
   
  WARNING: Negative pressures at 0:00:00 hrs.
   
  WARNING: Negative pressures at 0:00:00 hrs.
   
  WARNING: Negative pressures at 0:00:00 hrs.
   
  WARNING: Negative pressures at 0:00:00 hrs.
   
  WARNING: Negative pressures at 0:00:00 hrs.
   
  WARNING: Negative pressures at 0:00:00 hrs.
   
  WARNING: Negative pressures at 0:00:00 hrs.
   
  WARNING: Negative pressures at 0:00:00 hrs.
   
  WARNING: Negative pressures at 0:00:00 hrs.
   
  WARNING: Negative pressures at 0:00:00 hrs.
   
  WARNING: Negative pressures at 0:00:00 hrs.
   
  WARNING: Negative pressures at 0:00:00 hrs.
   
  WARNING: Negative pressures at 0:00:00 hrs.
   
  WARNING: Negative pressures at 0:00:00 hrs.
   
  WARNING: Negative pressures at 0:00:00 hrs.
   
  WARNING: Negative pressures at 0:00:00 hrs.
   
  WARNING: Negative pressures at 0:00:00 hrs.
   
  WARNING: Negative pressures at 0:00:00 hrs.
   
  WARNING: Negative pressures at 0:00:00 hrs.
   
  WARNING: Negative pressures at 0:00:00 hrs.
   
  WARNING: Negative pressures at 0:00:00 hrs.
   
  WARNING: Negative pressures at 0:00:00 hrs.
   
  WARNING: Negative pressures at 0:00:00 hrs.
   
  WARNING: Negative pressures at 0:00:00 hrs.
   
  WARNING: Negative pressures at 0:00:00 hrs.
   
  WARNING: Negative pressures at 0:00:00 hrs.
   
  WARNING: Negative pressures at 0:00:00 hrs.
   
  WARNING: Negative pressures at 0:00:00 hrs.
   
  WARNING: Negative pressures at 0:00:00 hrs.
   
  WARNING: Negative pressures at 0:00:00 hrs.
   
  WARNING: Negative pressures at 0:00:00 hrs.
   
  WARNING: Negative pressures at 0:00:00 hrs.
   
  WARNING: Negative pressures at 0:00:00 hrs.
   
  WARNING: Negative pressures at 0:00:00 hrs.
   
  WARNING: Negative pressures at 0:00:00 hrs.
   
  WARNING: Negative pressures at 0:00:00 hrs.
   
  WARNING: Negative pressures at 0:00:00 hrs.
   
  WARNING: Negative pressures at 0:00:00 hrs.
   
  WARNING: Negative pressures at 0:00:00 hrs.
   
  WARNING: Negative pressures at 0:00:00 hrs.
   
  WARNING: Negative pressures at 0:00:00 hrs.
   
  WARNING: Negative pressures at 0:00:00 hrs.
   
  WARNING: Negative pressures at 0:00:00 hrs.
   
  WARNING: Negative pressures at 0:00:00 hrs.
   
  WARNING: Negative pressures at 0:00:00 hrs.
   
  WARNING: Negative pressures at 0:00:00 hrs.
   
  WARNING: Negative pressures at 0:00:00 hrs.
   
  WARNING: Negative pressures at 0:00:00 hrs.
   
  WARNING: Negative pressures at 0:00:00 hrs.
   
  WARNING: Negative pressures at 0:00:00 hrs.
   
  WARNING: Negative pressures at 0:00:00 hrs.
   
  WARNING: Negative pressures at 0:00:00 hrs.
   
  WARNING: Negative pressures at 0:00:00 hrs.
   
  WARNING: Negative pressures at 0:00:00 hrs.
   
  WARNING: Negative pressures at 0:00:00 hrs.
   
  WARNING: Negative pressures at 0:00:00 hrs.
   
  WARNING: Negative pressures at 0:00:00 hrs.
   
  WARNING: Negative pressures at 0:00:00 hrs.
   
  WARNING: Negative pressures at 0:00:00 hrs.
   
  WARNING: Negative pressures at 0:00:00 hrs.
   
  WARNING: Negative pressures at 0:00:00 hrs.
   
  WARNING: Negative pressures at 0:00:00 hrs.
   
  WARNING: Negative pressures at 0:00:00 hrs.
   
  WARNING: Negative pressures at 0:00:00 hrs.
   
  WARNING: Negative pressures at 0:00:00 hrs.
   
  WARNING: Negative pressures at 0:00:00 hrs.
   
  WARNING: Negative pressures at 0:00:00 hrs.
   
  WARNING: Negative pressures at 0:00:00 hrs.
   
  WARNING: Negative pressures at 0:00:00 hrs.
   
  WARNING: Negative pressures at 0:00:00 hrs.
   
  WARNING: Negative pressures at 0:00:00 hrs.
   
  WARNING: Negative pressures at 0:00:00 hrs.
   
  WARNING: Negative pressures at 0:00:00 hrs.
   
  WARNING: Negative pressures at 0:00:00 hrs.
   
  WARNING: Negative pressures at 0:00:00 hrs.
   
  WARNING: Negative pressures at 0:00:00 hrs.
   
  WARNING: Negative pressures at 0:00:00 hrs.
   
  WARNING: Negative pressures at 0:00:00 hrs.
   
  WARNING: Negative pressures at 0:00:00 hrs.
   
  WARNING: Negative pressures at 0:00:00 hrs.
   
  WARNING: Negative pressures at 0:00:00 hrs.
   
  WARNING: Negative pressures at 0:00:00 hrs.
   
  WARNING: Negative pressures at 0:00:00 hrs.
   
  WARNING: Negative pressures at 0:00:00 hrs.
   
  WARNING: Negative pressures at 0:00:00 hrs.
   
  WARNING: Negative pressures at 0:00:00 hrs.
   
  WARNING: Negative pressures at 0:00:00 hrs.
   
  WARNING: Negative pressures at 0:00:00 hrs.
   
  WARNING: Negative pressures at 0:00:00 hrs.
   
  WARNING: Negative pressures at 0:00:00 hrs.
   
  WARNING: Negative pressures at 0:00:00 hrs.
   
  WARNING: Negative pressures at 0:00:00 hrs.
   
  WARNING: Negative pressures at 0:00:00 hrs.
   
  WARNING: Negative pressures at 0:00:00 hrs.
   
  WARNING: Negative pressures at 0:00:00 hrs.
   
  WARNING: Negative pressures at 0:00:00 hrs.
   
  WARNING: Negative pressures at 0:00:00 hrs.
   
  WARNING: Negative pressures at 0:00:00 hrs.
   
  WARNING: Negative pressures at 0:00:00 hrs.
   
  WARNING: Negative pressures at 0:00:00 hrs.
   
  WARNING: Negative pressures at 0:00:00 hrs.
   
  WARNING: Negative pressures at 0:00:00 hrs.
   
  WARNING: Negative pressures at 0:00:00 hrs.
   
  WARNING: Negative pressures at 0:00:00 hrs.
   
  WARNING: Negative pressures at 0:00:00 hrs.
   
  WARNING: Negative pressures at 0:00:00 hrs.
   
  WARNING: Negative pressures at 0:00:00 hrs.
   
  WARNING: Negative pressures at 0:00:00 hrs.
   
  WARNING: Negative pressures at 0:00:00 hrs.
   
  WARNING: Negative pressures at 0:00:00 hrs.
   
  WARNING: Negative pressures at 0:00:00 hrs.
   
  WARNING: Negative pressures at 0:00:00 hrs.
   
  WARNING: Negative pressures at 0:00:00 hrs.
   
  WARNING: Negative pressures at 0:00:00 hrs.
   
  WARNING: Negative pressures at 0:00:00 hrs.
   
  WARNING: Negative pressures at 0:00:00 hrs.
   
  WARNING: Negative pressures at 0:00:00 hrs.
   
  WARNING: Negative pressures at 0:00:00 hrs.
   
  WARNING: Negative pressures at 0:00:00 hrs.
   
  WARNING: Negative pressures at 0:00:00 hrs.
   
  WARNING: Negative pressures at 0:00:00 hrs.
   
  WARNING: Negative pressures at 0:00:00 hrs.
   
  WARNING: Negative pressures at 0:00:00 hrs.
   
  WARNING: Negative pressures at 0:00:00 hrs.
   
  WARNING: Negative pressures at 0:00:00 hrs.
   
  WARNING: Negative pressures at 0:00:00 hrs.
   
  WARNING: Negative pressures at 0:00:00 hrs.
   
  WARNING: Negative pressures at 0:00:00 hrs.
   
  WARNING: Negative pressures at 0:00:00 hrs.
   
  WARNING: Negative pressures at 0:00:00 hrs.
   
  WARNING: Negative pressures at 0:00:00 hrs.
   
  WARNING: Negative pressures at 0:00:00 hrs.
   
  WARNING: Negative pressures at 0:00:00 hrs.
   
  WARNING: Negative pressures at 0:00:00 hrs.
   
  WARNING: Negative pressures at 0:00:00 hrs.
   
  WARNING: Negative pressures at 0:00:00 hrs.
   
  WARNING: Negative pressures at 0:00:00 hrs.
   
  WARNING: Negative pressures at 0:00:00 hrs.
   
  WARNING: Negative pressures at 0:00:00 hrs.
   
  WARNING: Negative pressures at 0:00:00 hrs.
   
  WARNING: Negative pressures at 0:00:00 hrs.
   
  WARNING: Negative pressures at 0:00:00 hrs.
   
  WARNING: Negative pressures at 0:00:00 hrs.
   
  WARNING: Negative pressures at 0:00:00 hrs.
   
  WARNING: Negative pressures at 0:00:00 hrs.
   
  WARNING: Negative pressures at 0:00:00 hrs.
   
  WARNING: Negative pressures at 0:00:00 hrs.
   
  WARNING: Negative pressures at 0:00:00 hrs.
   
  WARNING: Negative pressures at 0:00:00 hrs.
   
  WARNING: Negative pressures at 0:00:00 hrs.
   
  WARNING: Negative pressures at 0:00:00 hrs.
   
  WARNING: Negative pressures at 0:00:00 hrs.
   
  WARNING: Negative pressures at 0:00:00 hrs.
   
  WARNING: Negative pressures at 0:00:00 hrs.
   
  WARNING: Negative pressures at 0:00:00 hrs.
   
  WARNING: Negative pressures at 0:00:00 hrs.
   
  WARNING: Negative pressures at 0:00:00 hrs.
   
  WARNING: Negative pressures at 0:00:00 hrs.
   
  WARNING: Negative pressures at 0:00:00 hrs.
   
  WARNING: Negative pressures at 0:00:00 hrs.
   
  WARNING: Negative pressures at 0:00:00 hrs.
   
  WARNING: Negative pressures at 0:00:00 hrs.
   
  WARNING: Negative pressures at 0:00:00 hrs.
   
  WARNING: Negative pressures at 0:00:00 hrs.
   
  WARNING: Negative pressures at 0:00:00 hrs.
   
  WARNING: Negative pressures at 0:00:00 hrs.
   
  WARNING: Negative pressures at 0:00:00 hrs.
   
  WARNING: Negative pressures at 0:00:00 hrs.
   
  WARNING: Negative pressures at 0:00:00 hrs.
   
  WARNING: Negative pressures at 0:00:00 hrs.
   
  WARNING: Negative pressures at 0:00:00 hrs.
   
  WARNING: Negative pressures at 0:00:00 hrs.
   
  WARNING: Negative pressures at 0:00:00 hrs.
   
  WARNING: Negative pressures at 0:00:00 hrs.
   
  WARNING: Negative pressures at 0:00:00 hrs.
   
  WARNING: Negative pressures at 0:00:00 hrs.
   
  WARNING: Negative pressures at 0:00:00 hrs.
   
  WARNING: Negative pressures at 0:00:00 hrs.
   
  WARNING: Negative pressures at 0:00:00 hrs.
   
  WARNING: Negative pressures at 0:00:00 hrs.
   
  WARNING: Negative pressures at 0:00:00 hrs.
   
  WARNING: Negative pressures at 0:00:00 hrs.
   
  WARNING: Negative pressures at 0:00:00 hrs.
   
  WARNING: Negative pressures at 0:00:00 hrs.
   
  WARNING: Negative pressures at 0:00:00 hrs.
   
  WARNING: Negative pressures at 0:00:00 hrs.
   
  WARNING: Negative pressures at 0:00:00 hrs.
   
  WARNING: Negative pressures at 0:00:00 hrs.
   
  WARNING: Negative pressures at 0:00:00 hrs.
   
  WARNING: Negative pressures at 0:00:00 hrs.
   
  WARNING: Negative pressures at 0:00:00 hrs.
   
  WARNING: Negative pressures at 0:00:00 hrs.
   
  WARNING: Negative pressures at 0:00:00 hrs.
   
  WARNING: Negative pressures at 0:00:00 hrs.
   
  WARNING: Negative pressures at 0:00:00 hrs.
   
  WARNING: Negative pressures at 0:00:00 hrs.
   
  WARNING: Negative pressures at 0:00:00 hrs.
   
  WARNING: Negative pressures at 0:00:00 hrs.
   
  WARNING: Negative pressures at 0:00:00 hrs.
   
  WARNING: Negative pressures at 0:00:00 hrs.
   
  WARNING: Negative pressures at 0:00:00 hrs.
   
  WARNING: Negative pressures at 0:00:00 hrs.
   
  WARNING: Negative pressures at 0:00:00 hrs.
   
  WARNING: Negative pressures at 0:00:00 hrs.
   
  WARNING: Negative pressures at 0:00:00 hrs.
   
  WARNING: Negative pressures at 0:00:00 hrs.
   
  WARNING: Negative pressures at 0:00:00 hrs.
   
  WARNING: Negative pressures at 0:00:00 hrs.
   
  WARNING: Negative pressures at 0:00:00 hrs.
   
  WARNING: Negative pressures at 0:00:00 hrs.
   
  WARNING: Negative pressures at 0:00:00 hrs.
   
  WARNING: Negative pressures at 0:00:00 hrs.
   
  WARNING: Negative pressures at 0:00:00 hrs.
   
  WARNING: Negative pressures at 0:00:00 hrs.
   
  WARNING: Negative pressures at 0:00:00 hrs.
   
  WARNING: Negative pressures at 0:00:00 hrs.
   
  WARNING: Negative pressures at 0:00:00 hrs.
   
  WARNING: Negative pressures at 0:00:00 hrs.
   
  WARNING: Negative pressures at 0:00:00 hrs.
   
  WARNING: Negative pressures at 0:00:00 hrs.
   
  WARNING: Negative pressures at 0:00:00 hrs.
   
  WARNING: Negative pressures at 0:00:00 hrs.
   
  WARNING: Negative pressures at 0:00:00 hrs.
   
  WARNING: Negative pressures at 0:00:00 hrs.
   
  WARNING: Negative pressures at 0:00:00 hrs.
   
  WARNING: Negative pressures at 0:00:00 hrs.
   
  WARNING: Negative pressures at 0:00:00 hrs.
   
  WARNING: Negative pressures at 0:00:00 hrs.
   
  WARNING: Negative pressures at 0:00:00 hrs.
   
  WARNING: Negative pressures at 0:00:00 hrs.
   
  WARNING: Negative pressures at 0:00:00 hrs.
   
  WARNING: Negative pressures at 0:00:00 hrs.
   
  WARNING: Negative pressures at 0:00:00 hrs.
   
  WARNING: Negative pressures at 0:00:00 hrs.
   
  WARNING: Negative pressures at 0:00:00 hrs.
   
  WARNING: Negative pressures at 0:00:00 hrs.
   
  WARNING: Negative pressures at 0:00:00 hrs.
   
  WARNING: Negative pressures at 0:00:00 hrs.
   
  WARNING: Negative pressures at 0:00:00 hrs.
   
  WARNING: Negative pressures at 0:00:00 hrs.
   
  WARNING: Negative pressures at 0:00:00 hrs.
   
  WARNING: Negative pressures at 0:00:00 hrs.
   
  WARNING: Negative pressures at 0:00:00 hrs.
   
  WARNING: Negative pressures at 0:00:00 hrs.
   
  WARNING: Negative pressures at 0:00:00 hrs.
   
  WARNING: Negative pressures at 0:00:00 hrs.
   
  WARNING: Negative pressures at 0:00:00 hrs.
   
  WARNING: Negative pressures at 0:00:00 hrs.
   
  WARNING: Negative pressures at 0:00:00 hrs.
   
  WARNING: Negative pressures at 0:00:00 hrs.
   
  WARNING: Negative pressures at 0:00:00 hrs.
   
  WARNING: Negative pressures at 0:00:00 hrs.
   
  WARNING: Negative pressures at 0:00:00 hrs.
   
  WARNING: Negative pressures at 0:00:00 hrs.
   
  WARNING: Negative pressures at 0:00:00 hrs.
   
  WARNING: Negative pressures at 0:00:00 hrs.
   
  WARNING: Negative pressures at 0:00:00 hrs.
   
  WARNING: Negative pressures at 0:00:00 hrs.
   
  WARNING: Negative pressures at 0:00:00 hrs.
   
  WARNING: Negative pressures at 0:00:00 hrs.
   
  WARNING: Negative pressures at 0:00:00 hrs.
   
  WARNING: Negative pressures at 0:00:00 hrs.
   
  WARNING: Negative pressures at 0:00:00 hrs.
   
  WARNING: Negative pressures at 0:00:00 hrs.
   
  WARNING: Negative pressures at 0:00:00 hrs.
   
  WARNING: Negative pressures at 0:00:00 hrs.
   
  WARNING: Negative pressures at 0:00:00 hrs.
   
  WARNING: Negative pressures at 0:00:00 hrs.
   
  WARNING: Negative pressures at 0:00:00 hrs.
   
  WARNING: Negative pressures at 0:00:00 hrs.
   
  WARNING: Negative pressures at 0:00:00 hrs.
   
  WARNING: Negative pressures at 0:00:00 hrs.
   
  WARNING: Negative pressures at 0:00:00 hrs.
   
  WARNING: Negative pressures at 0:00:00 hrs.
   
  WARNING: Negative pressures at 0:00:00 hrs.
   
  WARNING: Negative pressures at 0:00:00 hrs.
   
  WARNING: Negative pressures at 0:00:00 hrs.
   
  WARNING: Negative pressures at 0:00:00 hrs.
   
  WARNING: Negative pressures at 0:00:00 hrs.
   
  WARNING: Negative pressures at 0:00:00 hrs.
   
  WARNING: Negative pressures at 0:00:00 hrs.
   
  WARNING: Negative pressures at 0:00:00 hrs.
   
  WARNING: Negative pressures at 0:00:00 hrs.
   
  WARNING: Negative pressures at 0:00:00 hrs.
   
  WARNING: Negative pressures at 0:00:00 hrs.
   
  WARNING: Negative pressures at 0:00:00 hrs.
   
  WARNING: Negative pressures at 0:00:00 hrs.
   
  WARNING: Negative pressures at 0:00:00 hrs.
   
  WARNING: Negative pressures at 0:00:00 hrs.
   
  WARNING: Negative pressures at 0:00:00 hrs.
   
  WARNING: Negative pressures at 0:00:00 hrs.
   
  WARNING: Negative pressures at 0:00:00 hrs.
   
  WARNING: Negative pressures at 0:00:00 hrs.
   
  WARNING: Negative pressures at 0:00:00 hrs.
   
  WARNING: Negative pressures at 0:00:00 hrs.
   
  WARNING: Negative pressures at 0:00:00 hrs.
   
  WARNING: Negative pressures at 0:00:00 hrs.
   
  WARNING: Negative pressures at 0:00:00 hrs.
   
  WARNING: Negative pressures at 0:00:00 hrs.
   
  WARNING: Negative pressures at 0:00:00 hrs.
   
  WARNING: Negative pressures at 0:00:00 hrs.
   
  WARNING: Negative pressures at 0:00:00 hrs.
   
  WARNING: Negative pressures at 0:00:00 hrs.
   
  WARNING: Negative pressures at 0:00:00 hrs.
   
  WARNING: Negative pressures at 0:00:00 hrs.
   
  WARNING: Negative pressures at 0:00:00 hrs.
   
  WARNING: Negative pressures at 0:00:00 hrs.
   
  WARNING: Negative pressures at 0:00:00 hrs.
   
  WARNING: Negative pressures at 0:00:00 hrs.
   
  WARNING: Negative pressures at 0:00:00 hrs.
   
  WARNING: Negative pressures at 0:00:00 hrs.
   
  WARNING: Negative pressures at 0:00:00 hrs.
   
  WARNING: Negative pressures at 0:00:00 hrs.
   
  WARNING: Negative pressures at 0:00:00 hrs.
   
  WARNING: Negative pressures at 0:00:00 hrs.
   
  WARNING: Negative pressures at 0:00:00 hrs.
   
  WARNING: Negative pressures at 0:00:00 hrs.
   
  WARNING: Negative pressures at 0:00:00 hrs.
   
  WARNING: Negative pressures at 0:00:00 hrs.
   
  WARNING: Negative pressures at 0:00:00 hrs.
   
  WARNING: Negative pressures at 0:00:00 hrs.
   
  WARNING: Negative pressures at 0:00:00 hrs.
   
  WARNING: Negative pressures at 0:00:00 hrs.
   
  WARNING: Negative pressures at 0:00:00 hrs.
   
  WARNING: Negative pressures at 0:00:00 hrs.
   
  WARNING: Negative pressures at 0:00:00 hrs.
   
  WARNING: Negative pressures at 0:00:00 hrs.
   
  WARNING: Negative pressures at 0:00:00 hrs.
   
  WARNING: Negative pressures at 0:00:00 hrs.
   
  WARNING: Negative pressures at 0:00:00 hrs.
   
  WARNING: Negative pressures at 0:00:00 hrs.
   
  WARNING: Negative pressures at 0:00:00 hrs.
   
  WARNING: Negative pressures at 0:00:00 hrs.
   
  WARNING: Negative pressures at 0:00:00 hrs.
   
  WARNING: Negative pressures at 0:00:00 hrs.
   
  WARNING: Negative pressures at 0:00:00 hrs.
   
  WARNING: Negative pressures at 0:00:00 hrs.
   
  WARNING: Negative pressures at 0:00:00 hrs.
   
  WARNING: Negative pressures at 0:00:00 hrs.
   
  WARNING: Negative pressures at 0:00:00 hrs.
   
  WARNING: Negative pressures at 0:00:00 hrs.
   
  WARNING: Negative pressures at 0:00:00 hrs.
   
  WARNING: Negative pressures at 0:00:00 hrs.
   
  WARNING: Negative pressures at 0:00:00 hrs.
   
  WARNING: Negative pressures at 0:00:00 hrs.
   
  WARNING: Negative pressures at 0:00:00 hrs.
   
  WARNING: Negative pressures at 0:00:00 hrs.
   
  WARNING: Negative pressures at 0:00:00 hrs.
   
  WARNING: Negative pressures at 0:00:00 hrs.
   
  WARNING: Negative pressures at 0:00:00 hrs.
   
  WARNING: Negative pressures at 0:00:00 hrs.
   
  WARNING: Negative pressures at 0:00:00 hrs.
   
  WARNING: Negative pressures at 0:00:00 hrs.
   
  WARNING: Negative pressures at 0:00:00 hrs.
   
  WARNING: Negative pressures at 0:00:00 hrs.
   
  WARNING: Negative pressures at 0:00:00 hrs.
   
  WARNING: Negative pressures at 0:00:00 hrs.
   
  WARNING: Negative pressures at 0:00:00 hrs.
   
  WARNING: Negative pressures at 0:00:00 hrs.
   
  WARNING: Negative pressures at 0:00:00 hrs.
   
  WARNING: Negative pressures at 0:00:00 hrs.
   
  WARNING: Negative pressures at 0:00:00 hrs.
   
  WARNING: Negative pressures at 0:00:00 hrs.
   
  WARNING: Negative pressures at 0:00:00 hrs.
   
  WARNING: Negative pressures at 0:00:00 hrs.
   
  WARNING: Negative pressures at 0:00:00 hrs.
   
  WARNING: Negative pressures at 0:00:00 hrs.
   
  WARNING: Negative pressures at 0:00:00 hrs.
   
  WARNING: Negative pressures at 0:00:00 hrs.
   
  WARNING: Negative pressures at 0:00:00 hrs.
   
  WARNING: Negative pressures at 0:00:00 hrs.
   
  WARNING: Negative pressures at 0:00:00 hrs.
   
  WARNING: Negative pressures at 0:00:00 hrs.
   
  WARNING: Negative pressures at 0:00:00 hrs.
   
  WARNING: Negative pressures at 0:00:00 hrs.
   
  WARNING: Negative pressures at 0:00:00 hrs.
   
  WARNING: Negative pressures at 0:00:00 hrs.
   
  WARNING: Negative pressures at 0:00:00 hrs.
   
  WARNING: Negative pressures at 0:00:00 hrs.
   
  WARNING: Negative pressures at 0:00:00 hrs.
   
  WARNING: Negative pressures at 0:00:00 hrs.
   
  WARNING: Negative pressures at 0:00:00 hrs.
   
  WARNING: Negative pressures at 0:00:00 hrs.
   
  WARNING: Negative pressures at 0:00:00 hrs.
   
  WARNING: Negative pressures at 0:00:00 hrs.
   
  WARNING: Negative pressures at 0:00:00 hrs.
   
  WARNING: Negative pressures at 0:00:00 hrs.
   
  WARNING: Negative pressures at 0:00:00 hrs.
   
  WARNING: Negative pressures at 0:00:00 hrs.
   
  WARNING: Negative pressures at 0:00:00 hrs.
   
  WARNING: Negative pressures at 0:00:00 hrs.
   
  WARNING: Negative pressures at 0:00:00 hrs.
   
  WARNING: Negative pressures at 0:00:00 hrs.
   
  WARNING: Negative pressures at 0:00:00 hrs.
   
  WARNING: Negative pressures at 0:00:00 hrs.
   
  WARNING: Negative pressures at 0:00:00 hrs.
   
  WARNING: Negative pressures at 0:00:00 hrs.
   
  WARNING: Negative pressures at 0:00:00 hrs.
   
  WARNING: Negative pressures at 0:00:00 hrs.
   
  WARNING: Negative pressures at 0:00:00 hrs.
   
  WARNING: Negative pressures at 0:00:00 hrs.
   
  WARNING: Negative pressures at 0:00:00 hrs.
   
  WARNING: Negative pressures at 0:00:00 hrs.
   
  WARNING: Negative pressures at 0:00:00 hrs.
   
  WARNING: Negative pressures at 0:00:00 hrs.
   
  WARNING: Negative pressures at 0:00:00 hrs.
   
  WARNING: Negative pressures at 0:00:00 hrs.
   
  WARNING: Negative pressures at 0:00:00 hrs.
   
  WARNING: Negative pressures at 0:00:00 hrs.
   
  WARNING: Negative pressures at 0:00:00 hrs.
   
  WARNING: Negative pressures at 0:00:00 hrs.
   
  WARNING: Negative pressures at 0:00:00 hrs.
   
  WARNING: Negative pressures at 0:00:00 hrs.
   
  WARNING: Negative pressures at 0:00:00 hrs.
   
  WARNING: Negative pressures at 0:00:00 hrs.
   
  WARNING: Negative pressures at 0:00:00 hrs.
   
  WARNING: Negative pressures at 0:00:00 hrs.
   
  WARNING: Negative pressures at 0:00:00 hrs.
   
  WARNING: Negative pressures at 0:00:00 hrs.
   
  WARNING: Negative pressures at 0:00:00 hrs.
   
  WARNING: Negative pressures at 0:00:00 hrs.
   
  WARNING: Negative pressures at 0:00:00 hrs.
   
  WARNING: Negative pressures at 0:00:00 hrs.
   
  WARNING: Negative pressures at 0:00:00 hrs.
   
  WARNING: Negative pressures at 0:00:00 hrs.
   
  WARNING: Negative pressures at 0:00:00 hrs.
   
  WARNING: Negative pressures at 0:00:00 hrs.
   
  WARNING: Negative pressures at 0:00:00 hrs.
   
  WARNING: Negative pressures at 0:00:00 hrs.
   
  WARNING: Negative pressures at 0:00:00 hrs.
   
  WARNING: Negative pressures at 0:00:00 hrs.
   
  WARNING: Negative pressures at 0:00:00 hrs.
   
  WARNING: Negative pressures at 0:00:00 hrs.
   
  WARNING: Negative pressures at 0:00:00 hrs.
   
  WARNING: Negative pressures at 0:00:00 hrs.
   
  WARNING: Negative pressures at 0:00:00 hrs.
   
  WARNING: Negative pressures at 0:00:00 hrs.
   
  WARNING: Negative pressures at 0:00:00 hrs.
   
  WARNING: Negative pressures at 0:00:00 hrs.
   
  WARNING: Negative pressures at 0:00:00 hrs.
   
  WARNING: Negative pressures at 0:00:00 hrs.
   
  WARNING: Negative pressures at 0:00:00 hrs.
   
  WARNING: Negative pressures at 0:00:00 hrs.
   
  WARNING: Negative pressures at 0:00:00 hrs.
   
  WARNING: Negative pressures at 0:00:00 hrs.
   
  WARNING: Negative pressures at 0:00:00 hrs.
   
  WARNING: Negative pressures at 0:00:00 hrs.
   
  WARNING: Negative pressures at 0:00:00 hrs.
   
  WARNING: Negative pressures at 0:00:00 hrs.
   
  WARNING: Negative pressures at 0:00:00 hrs.
   
  WARNING: Negative pressures at 0:00:00 hrs.
   
  WARNING: Negative pressures at 0:00:00 hrs.
   
  WARNING: Negative pressures at 0:00:00 hrs.
   
  WARNING: Negative pressures at 0:00:00 hrs.
   
  WARNING: Negative pressures at 0:00:00 hrs.
   
  WARNING: Negative pressures at 0:00:00 hrs.
   
  WARNING: Negative pressures at 0:00:00 hrs.
   
  WARNING: Negative pressures at 0:00:00 hrs.
   
  WARNING: Negative pressures at 0:00:00 hrs.
   
  WARNING: Negative pressures at 0:00:00 hrs.
   
  WARNING: Negative pressures at 0:00:00 hrs.
   
  WARNING: Negative pressures at 0:00:00 hrs.
   
  WARNING: Negative pressures at 0:00:00 hrs.
   
  WARNING: Negative pressures at 0:00:00 hrs.
   
  WARNING: Negative pressures at 0:00:00 hrs.
   
  WARNING: Negative pressures at 0:00:00 hrs.
   
  WARNING: Negative pressures at 0:00:00 hrs.
   
  WARNING: Negative pressures at 0:00:00 hrs.
   
  WARNING: Negative pressures at 0:00:00 hrs.
   
  WARNING: Negative pressures at 0:00:00 hrs.
   
  WARNING: Negative pressures at 0:00:00 hrs.
   
  WARNING: Negative pressures at 0:00:00 hrs.
   
  WARNING: Negative pressures at 0:00:00 hrs.
   
  WARNING: Negative pressures at 0:00:00 hrs.
   
  WARNING: Negative pressures at 0:00:00 hrs.
   
  WARNING: Negative pressures at 0:00:00 hrs.
   
  WARNING: Negative pressures at 0:00:00 hrs.
   
  WARNING: Negative pressures at 0:00:00 hrs.
   
  WARNING: Negative pressures at 0:00:00 hrs.
   
  WARNING: Negative pressures at 0:00:00 hrs.
   
  WARNING: Negative pressures at 0:00:00 hrs.
   
  WARNING: Negative pressures at 0:00:00 hrs.
   
  WARNING: Negative pressures at 0:00:00 hrs.
   
  WARNING: Negative pressures at 0:00:00 hrs.
   
  WARNING: Negative pressures at 0:00:00 hrs.
   
  WARNING: Negative pressures at 0:00:00 hrs.
   
  WARNING: Negative pressures at 0:00:00 hrs.
   
  WARNING: Negative pressures at 0:00:00 hrs.
   
  WARNING: Negative pressures at 0:00:00 hrs.
   
  WARNING: Negative pressures at 0:00:00 hrs.
   
  WARNING: Negative pressures at 0:00:00 hrs.
   
  WARNING: Negative pressures at 0:00:00 hrs.
   
  WARNING: Negative pressures at 0:00:00 hrs.
   
  WARNING: Negative pressures at 0:00:00 hrs.
   
  WARNING: Negative pressures at 0:00:00 hrs.
   
  WARNING: Negative pressures at 0:00:00 hrs.
   
  WARNING: Negative pressures at 0:00:00 hrs.
   
  WARNING: Negative pressures at 0:00:00 hrs.
   
  WARNING: Negative pressures at 0:00:00 hrs.
   
  WARNING: Negative pressures at 0:00:00 hrs.
   
  WARNING: Negative pressures at 0:00:00 hrs.
   
  WARNING: Negative pressures at 0:00:00 hrs.
   
  WARNING: Negative pressures at 0:00:00 hrs.
   
  WARNING: Negative pressures at 0:00:00 hrs.
   
  WARNING: Negative pressures at 0:00:00 hrs.
   
  WARNING: Negative pressures at 0:00:00 hrs.
   
  WARNING: Negative pressures at 0:00:00 hrs.
   
  WARNING: Negative pressures at 0:00:00 hrs.
   
  WARNING: Negative pressures at 0:00:00 hrs.
   
  WARNING: Negative pressures at 0:00:00 hrs.
   
  WARNING: Negative pressures at 0:00:00 hrs.
   
  WARNING: Negative pressures at 0:00:00 hrs.
   
  WARNING: Negative pressures at 0:00:00 hrs.
   
  WARNING: Negative pressures at 0:00:00 hrs.
   
  WARNING: Negative pressures at 0:00:00 hrs.
   
  WARNING: Negative pressures at 0:00:00 hrs.
   
  WARNING: Negative pressures at 0:00:00 hrs.
   
  WARNING: Negative pressures at 0:00:00 hrs.
   
  WARNING: Negative pressures at 0:00:00 hrs.
   
  WARNING: Negative pressures at 0:00:00 hrs.
   
  WARNING: Negative pressures at 0:00:00 hrs.
   
  WARNING: Negative pressures at 0:00:00 hrs.
   
  WARNING: Negative pressures at 0:00:00 hrs.
   
  WARNING: Negative pressures at 0:00:00 hrs.
   
  WARNING: Negative pressures at 0:00:00 hrs.
   
  WARNING: Negative pressures at 0:00:00 hrs.
   
  WARNING: Negative pressures at 0:00:00 hrs.
   
  WARNING: Negative pressures at 0:00:00 hrs.
   
  WARNING: Negative pressures at 0:00:00 hrs.
   
  WARNING: Negative pressures at 0:00:00 hrs.
   
  WARNING: Negative pressures at 0:00:00 hrs.
   
  WARNING: Negative pressures at 0:00:00 hrs.
   
  WARNING: Negative pressures at 0:00:00 hrs.
   
  WARNING: Negative pressures at 0:00:00 hrs.
   
  WARNING: Negative pressures at 0:00:00 hrs.
   
  WARNING: Negative pressures at 0:00:00 hrs.
   
  WARNING: Negative pressures at 0:00:00 hrs.
   
  WARNING: Negative pressures at 0:00:00 hrs.
   
  WARNING: Negative pressures at 0:00:00 hrs.
   
  WARNING: Negative pressures at 0:00:00 hrs.
   
  WARNING: Negative pressures at 0:00:00 hrs.
   
  WARNING: Negative pressures at 0:00:00 hrs.
   
  WARNING: Negative pressures at 0:00:00 hrs.
   
  WARNING: Negative pressures at 0:00:00 hrs.
   
  WARNING: Negative pressures at 0:00:00 hrs.
   
  WARNING: Negative pressures at 0:00:00 hrs.
   
  WARNING: Negative pressures at 0:00:00 hrs.
   
  WARNING: Negative pressures at 0:00:00 hrs.
   
  WARNING: Negative pressures at 0:00:00 hrs.
   
  WARNING: Negative pressures at 0:00:00 hrs.
   
  WARNING: Negative pressures at 0:00:00 hrs.
   
  WARNING: Negative pressures at 0:00:00 hrs.
   
  WARNING: Negative pressures at 0:00:00 hrs.
   
  WARNING: Negative pressures at 0:00:00 hrs.
   
  WARNING: Negative pressures at 0:00:00 hrs.
   
  WARNING: Negative pressures at 0:00:00 hrs.
   
  WARNING: Negative pressures at 0:00:00 hrs.
   
  WARNING: Negative pressures at 0:00:00 hrs.
   
  WARNING: Negative pressures at 0:00:00 hrs.
   
  WARNING: Negative pressures at 0:00:00 hrs.
   
  WARNING: Negative pressures at 0:00:00 hrs.
   
  WARNING: Negative pressures at 0:00:00 hrs.
   
  WARNING: Negative pressures at 0:00:00 hrs.
   
  WARNING: Negative pressures at 0:00:00 hrs.
   
  WARNING: Negative pressures at 0:00:00 hrs.
   
  WARNING: Negative pressures at 0:00:00 hrs.
   
  WARNING: Negative pressures at 0:00:00 hrs.
   
  WARNING: Negative pressures at 0:00:00 hrs.
   
  WARNING: Negative pressures at 0:00:00 hrs.
   
  WARNING: Negative pressures at 0:00:00 hrs.
   
  WARNING: Negative pressures at 0:00:00 hrs.
   
  WARNING: Negative pressures at 0:00:00 hrs.
   
  WARNING: Negative pressures at 0:00:00 hrs.
   
  WARNING: Negative pressures at 0:00:00 hrs.
   
  WARNING: Negative pressures at 0:00:00 hrs.
   
  WARNING: Negative pressures at 0:00:00 hrs.
   
  WARNING: Negative pressures at 0:00:00 hrs.
   
  WARNING: Negative pressures at 0:00:00 hrs.
   
  WARNING: Negative pressures at 0:00:00 hrs.
   
  WARNING: Negative pressures at 0:00:00 hrs.
   
  WARNING: Negative pressures at 0:00:00 hrs.
   
  WARNING: Negative pressures at 0:00:00 hrs.
   
  WARNING: Negative pressures at 0:00:00 hrs.
   
  WARNING: Negative pressures at 0:00:00 hrs.
   
  WARNING: Negative pressures at 0:00:00 hrs.
   
  WARNING: Negative pressures at 0:00:00 hrs.
   
  WARNING: Negative pressures at 0:00:00 hrs.
   
  WARNING: Negative pressures at 0:00:00 hrs.
   
  WARNING: Negative pressures at 0:00:00 hrs.
   
  WARNING: Negative pressures at 0:00:00 hrs.
   
  WARNING: Negative pressures at 0:00:00 hrs.
   
  WARNING: Negative pressures at 0:00:00 hrs.
   
  WARNING: Negative pressures at 0:00:00 hrs.
   
  WARNING: Negative pressures at 0:00:00 hrs.
   
  WARNING: Negative pressures at 0:00:00 hrs.
   
  WARNING: Negative pressures at 0:00:00 hrs.
   
  WARNING: Negative pressures at 0:00:00 hrs.
   
  WARNING: Negative pressures at 0:00:00 hrs.
   
  WARNING: Negative pressures at 0:00:00 hrs.
   
  WARNING: Negative pressures at 0:00:00 hrs.
   
  WARNING: Negative pressures at 0:00:00 hrs.
   
  WARNING: Negative pressures at 0:00:00 hrs.
   
  WARNING: Negative pressures at 0:00:00 hrs.
   
  WARNING: Negative pressures at 0:00:00 hrs.
   
  WARNING: Negative pressures at 0:00:00 hrs.
   
  WARNING: Negative pressures at 0:00:00 hrs.
   
  WARNING: Negative pressures at 0:00:00 hrs.
   
  WARNING: Negative pressures at 0:00:00 hrs.
   
  WARNING: Negative pressures at 0:00:00 hrs.
   
  WARNING: Negative pressures at 0:00:00 hrs.
   
  WARNING: Negative pressures at 0:00:00 hrs.
   
  WARNING: Negative pressures at 0:00:00 hrs.
   
  WARNING: Negative pressures at 0:00:00 hrs.
   
  WARNING: Negative pressures at 0:00:00 hrs.
   
  WARNING: Negative pressures at 0:00:00 hrs.
   
  WARNING: Negative pressures at 0:00:00 hrs.
   
  WARNING: Negative pressures at 0:00:00 hrs.
   
  WARNING: Negative pressures at 0:00:00 hrs.
   
  WARNING: Negative pressures at 0:00:00 hrs.
   
  WARNING: Negative pressures at 0:00:00 hrs.
   
  WARNING: Negative pressures at 0:00:00 hrs.
   
  WARNING: Negative pressures at 0:00:00 hrs.
   
  WARNING: Negative pressures at 0:00:00 hrs.
   
  WARNING: Negative pressures at 0:00:00 hrs.
   
  WARNING: Negative pressures at 0:00:00 hrs.
   
  WARNING: Negative pressures at 0:00:00 hrs.
   
  WARNING: Negative pressures at 0:00:00 hrs.
   
  WARNING: Negative pressures at 0:00:00 hrs.
   
  WARNING: Negative pressures at 0:00:00 hrs.
   
  WARNING: Negative pressures at 0:00:00 hrs.
   
  WARNING: Negative pressures at 0:00:00 hrs.
   
  WARNING: Negative pressures at 0:00:00 hrs.
   
  WARNING: Negative pressures at 0:00:00 hrs.
   
  WARNING: Negative pressures at 0:00:00 hrs.
   
  WARNING: Negative pressures at 0:00:00 hrs.
   
  WARNING: Negative pressures at 0:00:00 hrs.
   
  WARNING: Negative pressures at 0:00:00 hrs.
   
  WARNING: Negative pressures at 0:00:00 hrs.
   
  WARNING: Negative pressures at 0:00:00 hrs.
   
  WARNING: Negative pressures at 0:00:00 hrs.
   
  WARNING: Negative pressures at 0:00:00 hrs.
   
  WARNING: Negative pressures at 0:00:00 hrs.
   
  WARNING: Negative pressures at 0:00:00 hrs.
   
  WARNING: Negative pressures at 0:00:00 hrs.
   
  WARNING: Negative pressures at 0:00:00 hrs.
   
  WARNING: Negative pressures at 0:00:00 hrs.
   
  WARNING: Negative pressures at 0:00:00 hrs.
   
  WARNING: Negative pressures at 0:00:00 hrs.
   
  WARNING: Negative pressures at 0:00:00 hrs.
   
  WARNING: Negative pressures at 0:00:00 hrs.
   
  WARNING: Negative pressures at 0:00:00 hrs.
   
  WARNING: Negative pressures at 0:00:00 hrs.
   
  WARNING: Negative pressures at 0:00:00 hrs.
   
  WARNING: Negative pressures at 0:00:00 hrs.
   
  WARNING: Negative pressures at 0:00:00 hrs.
   
  WARNING: Negative pressures at 0:00:00 hrs.
   
  WARNING: Negative pressures at 0:00:00 hrs.
   
  WARNING: Negative pressures at 0:00:00 hrs.
   
  WARNING: Negative pressures at 0:00:00 hrs.
   
  WARNING: Negative pressures at 0:00:00 hrs.
   
  WARNING: Negative pressures at 0:00:00 hrs.
   
  WARNING: Negative pressures at 0:00:00 hrs.
   
  WARNING: Negative pressures at 0:00:00 hrs.
   
  WARNING: Negative pressures at 0:00:00 hrs.
   
  WARNING: Negative pressures at 0:00:00 hrs.
   
  WARNING: Negative pressures at 0:00:00 hrs.
   
  WARNING: Negative pressures at 0:00:00 hrs.
   
  WARNING: Negative pressures at 0:00:00 hrs.
   
  WARNING: Negative pressures at 0:00:00 hrs.
   
  WARNING: Negative pressures at 0:00:00 hrs.
   
  WARNING: Negative pressures at 0:00:00 hrs.
   
  WARNING: Negative pressures at 0:00:00 hrs.
   
  WARNING: Negative pressures at 0:00:00 hrs.
   
  WARNING: Negative pressures at 0:00:00 hrs.
   
  WARNING: Negative pressures at 0:00:00 hrs.
   
  WARNING: Negative pressures at 0:00:00 hrs.
   
  WARNING: Negative pressures at 0:00:00 hrs.
   
  WARNING: Negative pressures at 0:00:00 hrs.
   
  WARNING: Negative pressures at 0:00:00 hrs.
   
  WARNING: Negative pressures at 0:00:00 hrs.
   
  WARNING: Negative pressures at 0:00:00 hrs.
   
  WARNING: Negative pressures at 0:00:00 hrs.
   
  WARNING: Negative pressures at 0:00:00 hrs.
   
  WARNING: Negative pressures at 0:00:00 hrs.
   
  WARNING: Negative pressures at 0:00:00 hrs.
   
  WARNING: Negative pressures at 0:00:00 hrs.
   
  WARNING: Negative pressures at 0:00:00 hrs.
   
  WARNING: Negative pressures at 0:00:00 hrs.
   
  WARNING: Negative pressures at 0:00:00 hrs.
   
  WARNING: Negative pressures at 0:00:00 hrs.
   
  WARNING: Negative pressures at 0:00:00 hrs.
   
  WARNING: Negative pressures at 0:00:00 hrs.
   
  WARNING: Negative pressures at 0:00:00 hrs.
   
  WARNING: Negative pressures at 0:00:00 hrs.
   
  WARNING: Negative pressures at 0:00:00 hrs.
   
  WARNING: Negative pressures at 0:00:00 hrs.
   
  WARNING: Negative pressures at 0:00:00 hrs.
   
  WARNING: Negative pressures at 0:00:00 hrs.
   
  WARNING: Negative pressures at 0:00:00 hrs.
   
  WARNING: Negative pressures at 0:00:00 hrs.
   
  WARNING: Negative pressures at 0:00:00 hrs.
   
  WARNING: Negative pressures at 0:00:00 hrs.
   
  WARNING: Negative pressures at 0:00:00 hrs.
   
  WARNING: Negative pressures at 0:00:00 hrs.
   
  WARNING: Negative pressures at 0:00:00 hrs.
   
  WARNING: Negative pressures at 0:00:00 hrs.
   
  WARNING: Negative pressures at 0:00:00 hrs.
   
  WARNING: Negative pressures at 0:00:00 hrs.
   
  WARNING: Negative pressures at 0:00:00 hrs.
   
  WARNING: Negative pressures at 0:00:00 hrs.
   
  WARNING: Negative pressures at 0:00:00 hrs.
   
  WARNING: Negative pressures at 0:00:00 hrs.
   
  WARNING: Negative pressures at 0:00:00 hrs.
   
  WARNING: Negative pressures at 0:00:00 hrs.
   
  WARNING: Negative pressures at 0:00:00 hrs.
   
  WARNING: Negative pressures at 0:00:00 hrs.
   
  WARNING: Negative pressures at 0:00:00 hrs.
   
  WARNING: Negative pressures at 0:00:00 hrs.
   
  WARNING: Negative pressures at 0:00:00 hrs.
   
  WARNING: Negative pressures at 0:00:00 hrs.
   
  WARNING: Negative pressures at 0:00:00 hrs.
   
  WARNING: Negative pressures at 0:00:00 hrs.
   
  WARNING: Negative pressures at 0:00:00 hrs.
   
  WARNING: Negative pressures at 0:00:00 hrs.
   
  WARNING: Negative pressures at 0:00:00 hrs.
   
  WARNING: Negative pressures at 0:00:00 hrs.
   
  WARNING: Negative pressures at 0:00:00 hrs.
   
  WARNING: Negative pressures at 0:00:00 hrs.
   
  WARNING: Negative pressures at 0:00:00 hrs.
   
  WARNING: Negative pressures at 0:00:00 hrs.
   
  WARNING: Negative pressures at 0:00:00 hrs.
   
  WARNING: Negative pressures at 0:00:00 hrs.
   
  WARNING: Negative pressures at 0:00:00 hrs.
   
  WARNING: Negative pressures at 0:00:00 hrs.
   
  WARNING: Negative pressures at 0:00:00 hrs.
   
  WARNING: Negative pressures at 0:00:00 hrs.
   
  WARNING: Negative pressures at 0:00:00 hrs.
   
  WARNING: Negative pressures at 0:00:00 hrs.
   
  WARNING: Negative pressures at 0:00:00 hrs.
   
  WARNING: Negative pressures at 0:00:00 hrs.
   
  WARNING: Negative pressures at 0:00:00 hrs.
   
  WARNING: Negative pressures at 0:00:00 hrs.
   
  WARNING: Negative pressures at 0:00:00 hrs.
   
  WARNING: Negative pressures at 0:00:00 hrs.
   
  WARNING: Negative pressures at 0:00:00 hrs.
   
  WARNING: Negative pressures at 0:00:00 hrs.
   
  WARNING: Negative pressures at 0:00:00 hrs.
   
  WARNING: Negative pressures at 0:00:00 hrs.
   
  WARNING: Negative pressures at 0:00:00 hrs.
   
  WARNING: Negative pressures at 0:00:00 hrs.
   
  WARNING: Negative pressures at 0:00:00 hrs.
   
  WARNING: Negative pressures at 0:00:00 hrs.
   
  WARNING: Negative pressures at 0:00:00 hrs.
   
  WARNING: Negative pressures at 0:00:00 hrs.
   
  WARNING: Negative pressures at 0:00:00 hrs.
   
  WARNING: Negative pressures at 0:00:00 hrs.
   
  WARNING: Negative pressures at 0:00:00 hrs.
   
  WARNING: Negative pressures at 0:00:00 hrs.
   
  WARNING: Negative pressures at 0:00:00 hrs.
   
  WARNING: Negative pressures at 0:00:00 hrs.
   
  WARNING: Negative pressures at 0:00:00 hrs.
   
  WARNING: Negative pressures at 0:00:00 hrs.
   
  WARNING: Negative pressures at 0:00:00 hrs.
   
  WARNING: Negative pressures at 0:00:00 hrs.
   
  WARNING: Negative pressures at 0:00:00 hrs.
   
  WARNING: Negative pressures at 0:00:00 hrs.
   
  WARNING: Negative pressures at 0:00:00 hrs.
   
  WARNING: Negative pressures at 0:00:00 hrs.
   
  WARNING: Negative pressures at 0:00:00 hrs.
   
  WARNING: Negative pressures at 0:00:00 hrs.
   
  WARNING: Negative pressures at 0:00:00 hrs.
   
  WARNING: Negative pressures at 0:00:00 hrs.
   
  WARNING: Negative pressures at 0:00:00 hrs.
   
  WARNING: Negative pressures at 0:00:00 hrs.
   
  WARNING: Negative pressures at 0:00:00 hrs.
   
  WARNING: Negative pressures at 0:00:00 hrs.
   
  WARNING: Negative pressures at 0:00:00 hrs.
   
  WARNING: Negative pressures at 0:00:00 hrs.
   
  WARNING: Negative pressures at 0:00:00 hrs.
   
  WARNING: Negative pressures at 0:00:00 hrs.
   
  WARNING: Negative pressures at 0:00:00 hrs.
   
  WARNING: Negative pressures at 0:00:00 hrs.
   
  WARNING: Negative pressures at 0:00:00 hrs.
   
  WARNING: Negative pressures at 0:00:00 hrs.
   
  WARNING: Negative pressures at 0:00:00 hrs.
   
  WARNING: Negative pressures at 0:00:00 hrs.
   
  WARNING: Negative pressures at 0:00:00 hrs.
   
  WARNING: Negative pressures at 0:00:00 hrs.
   
  WARNING: Negative pressures at 0:00:00 hrs.
   
  WARNING: Negative pressures at 0:00:00 hrs.
   
  WARNING: Negative pressures at 0:00:00 hrs.
   
  WARNING: Negative pressures at 0:00:00 hrs.
   
  WARNING: Negative pressures at 0:00:00 hrs.
   
  WARNING: Negative pressures at 0:00:00 hrs.
   
  WARNING: Negative pressures at 0:00:00 hrs.
   
  WARNING: Negative pressures at 0:00:00 hrs.
   
  WARNING: Negative pressures at 0:00:00 hrs.
   
  WARNING: Negative pressures at 0:00:00 hrs.
   
  WARNING: Negative pressures at 0:00:00 hrs.
   
  WARNING: Negative pressures at 0:00:00 hrs.
   
  WARNING: Negative pressures at 0:00:00 hrs.
   
  WARNING: Negative pressures at 0:00:00 hrs.
   
  WARNING: Negative pressures at 0:00:00 hrs.
   
  WARNING: Negative pressures at 0:00:00 hrs.
   
  WARNING: Negative pressures at 0:00:00 hrs.
   
  WARNING: Negative pressures at 0:00:00 hrs.
   
  WARNING: Negative pressures at 0:00:00 hrs.
   
  WARNING: Negative pressures at 0:00:00 hrs.
   
  WARNING: Negative pressures at 0:00:00 hrs.
   
  WARNING: Negative pressures at 0:00:00 hrs.
   
  WARNING: Negative pressures at 0:00:00 hrs.
   
  WARNING: Negative pressures at 0:00:00 hrs.
   
  WARNING: Negative pressures at 0:00:00 hrs.
   
  WARNING: Negative pressures at 0:00:00 hrs.
   
  WARNING: Negative pressures at 0:00:00 hrs.
   
  WARNING: Negative pressures at 0:00:00 hrs.
   
  WARNING: Negative pressures at 0:00:00 hrs.
   
  WARNING: Negative pressures at 0:00:00 hrs.
   
  WARNING: Negative pressures at 0:00:00 hrs.
   
  WARNING: Negative pressures at 0:00:00 hrs.
   
  WARNING: Negative pressures at 0:00:00 hrs.
   
  WARNING: Negative pressures at 0:00:00 hrs.
   
  WARNING: Negative pressures at 0:00:00 hrs.
   
  WARNING: Negative pressures at 0:00:00 hrs.
   
  WARNING: Negative pressures at 0:00:00 hrs.
   
  WARNING: Negative pressures at 0:00:00 hrs.
   
  WARNING: Negative pressures at 0:00:00 hrs.
   
  WARNING: Negative pressures at 0:00:00 hrs.
   
  WARNING: Negative pressures at 0:00:00 hrs.
   
  WARNING: Negative pressures at 0:00:00 hrs.
   
  WARNING: Negative pressures at 0:00:00 hrs.
   
  WARNING: Negative pressures at 0:00:00 hrs.
   
  WARNING: Negative pressures at 0:00:00 hrs.
   
  WARNING: Negative pressures at 0:00:00 hrs.
   
  WARNING: Negative pressures at 0:00:00 hrs.
   
  WARNING: Negative pressures at 0:00:00 hrs.
   
  WARNING: Negative pressures at 0:00:00 hrs.
   
  WARNING: Negative pressures at 0:00:00 hrs.
   
  WARNING: Negative pressures at 0:00:00 hrs.
   
  WARNING: Negative pressures at 0:00:00 hrs.
   
  WARNING: Negative pressures at 0:00:00 hrs.
   
  WARNING: Negative pressures at 0:00:00 hrs.
   
  WARNING: Negative pressures at 0:00:00 hrs.
   
  WARNING: Negative pressures at 0:00:00 hrs.
   
  WARNING: Negative pressures at 0:00:00 hrs.
   
  WARNING: Negative pressures at 0:00:00 hrs.
   
  WARNING: Negative pressures at 0:00:00 hrs.
   
  WARNING: Negative pressures at 0:00:00 hrs.
   
  WARNING: Negative pressures at 0:00:00 hrs.
   
  WARNING: Negative pressures at 0:00:00 hrs.
   
  WARNING: Negative pressures at 0:00:00 hrs.
   
  WARNING: Negative pressures at 0:00:00 hrs.
   
  WARNING: Negative pressures at 0:00:00 hrs.
   
  WARNING: Negative pressures at 0:00:00 hrs.
   
  WARNING: Negative pressures at 0:00:00 hrs.
   
  WARNING: Negative pressures at 0:00:00 hrs.
   
  WARNING: Negative pressures at 0:00:00 hrs.
   
  WARNING: Negative pressures at 0:00:00 hrs.
   
  WARNING: Negative pressures at 0:00:00 hrs.
   
  WARNING: Negative pressures at 0:00:00 hrs.
   
  WARNING: Negative pressures at 0:00:00 hrs.
   
  WARNING: Negative pressures at 0:00:00 hrs.
   
  WARNING: Negative pressures at 0:00:00 hrs.
   
  WARNING: Negative pressures at 0:00:00 hrs.
   
  WARNING: Negative pressures at 0:00:00 hrs.
   
  WARNING: Negative pressures at 0:00:00 hrs.
   
  WARNING: Negative pressures at 0:00:00 hrs.
   
  WARNING: Negative pressures at 0:00:00 hrs.
   
  WARNING: Negative pressures at 0:00:00 hrs.
   
  WARNING: Negative pressures at 0:00:00 hrs.
   
  WARNING: Negative pressures at 0:00:00 hrs.
   
  WARNING: Negative pressures at 0:00:00 hrs.
   
  WARNING: Negative pressures at 0:00:00 hrs.
   
  WARNING: Negative pressures at 0:00:00 hrs.
   
  WARNING: Negative pressures at 0:00:00 hrs.
   
  WARNING: Negative pressures at 0:00:00 hrs.
   
  WARNING: Negative pressures at 0:00:00 hrs.
   
  WARNING: Negative pressures at 0:00:00 hrs.
   
  WARNING: Negative pressures at 0:00:00 hrs.
   
  WARNING: Negative pressures at 0:00:00 hrs.
   
  WARNING: Negative pressures at 0:00:00 hrs.
   
  WARNING: Negative pressures at 0:00:00 hrs.
   
  WARNING: Negative pressures at 0:00:00 hrs.
   
  WARNING: Negative pressures at 0:00:00 hrs.
   
  WARNING: Negative pressures at 0:00:00 hrs.
   
  WARNING: Negative pressures at 0:00:00 hrs.
   
  WARNING: Negative pressures at 0:00:00 hrs.
   
  WARNING: Negative pressures at 0:00:00 hrs.
   
  WARNING: Negative pressures at 0:00:00 hrs.
   
  WARNING: Negative pressures at 0:00:00 hrs.
   
  WARNING: Negative pressures at 0:00:00 hrs.
   
  WARNING: Negative pressures at 0:00:00 hrs.
   
  WARNING: Negative pressures at 0:00:00 hrs.
   
  WARNING: Negative pressures at 0:00:00 hrs.
   
  WARNING: Negative pressures at 0:00:00 hrs.
   
  WARNING: Negative pressures at 0:00:00 hrs.
   
  WARNING: Negative pressures at 0:00:00 hrs.
   
  WARNING: Negative pressures at 0:00:00 hrs.
   
  WARNING: Negative pressures at 0:00:00 hrs.
   
  WARNING: Negative pressures at 0:00:00 hrs.
   
  WARNING: Negative pressures at 0:00:00 hrs.
   
  WARNING: Negative pressures at 0:00:00 hrs.
   
  WARNING: Negative pressures at 0:00:00 hrs.
   
  WARNING: Negative pressures at 0:00:00 hrs.
   
  WARNING: Negative pressures at 0:00:00 hrs.
   
  WARNING: Negative pressures at 0:00:00 hrs.
   
  WARNING: Negative pressures at 0:00:00 hrs.
   
  WARNING: Negative pressures at 0:00:00 hrs.
   
  WARNING: Negative pressures at 0:00:00 hrs.
   
  WARNING: Negative pressures at 0:00:00 hrs.
   
  WARNING: Negative pressures at 0:00:00 hrs.
   
  WARNING: Negative pressures at 0:00:00 hrs.
   
  WARNING: Negative pressures at 0:00:00 hrs.
   
  WARNING: Negative pressures at 0:00:00 hrs.
   
  WARNING: Negative pressures at 0:00:00 hrs.
   
  WARNING: Negative pressures at 0:00:00 hrs.
   
  WARNING: Negative pressures at 0:00:00 hrs.
   
  WARNING: Negative pressures at 0:00:00 hrs.
   
  WARNING: Negative pressures at 0:00:00 hrs.
   
  WARNING: Negative pressures at 0:00:00 hrs.
   
  WARNING: Negative pressures at 0:00:00 hrs.
   
  WARNING: Negative pressures at 0:00:00 hrs.
   
  WARNING: Negative pressures at 0:00:00 hrs.
   
  WARNING: Negative pressures at 0:00:00 hrs.
   
  WARNING: Negative pressures at 0:00:00 hrs.
   
  WARNING: Negative pressures at 0:00:00 hrs.
   
  WARNING: Negative pressures at 0:00:00 hrs.
   
  WARNING: Negative pressures at 0:00:00 hrs.
   
  WARNING: Negative pressures at 0:00:00 hrs.
   
  WARNING: Negative pressures at 0:00:00 hrs.
   
  WARNING: Negative pressures at 0:00:00 hrs.
   
  WARNING: Negative pressures at 0:00:00 hrs.
   
  WARNING: Negative pressures at 0:00:00 hrs.
   
  WARNING: Negative pressures at 0:00:00 hrs.
   
  WARNING: Negative pressures at 0:00:00 hrs.
   
  WARNING: Negative pressures at 0:00:00 hrs.
   
  WARNING: Negative pressures at 0:00:00 hrs.
   
  WARNING: Negative pressures at 0:00:00 hrs.
   
  WARNING: Negative pressures at 0:00:00 hrs.
   
  WARNING: Negative pressures at 0:00:00 hrs.
   
  WARNING: Negative pressures at 0:00:00 hrs.
   
  WARNING: Negative pressures at 0:00:00 hrs.
   
  WARNING: Negative pressures at 0:00:00 hrs.
   
  WARNING: Negative pressures at 0:00:00 hrs.
   
  WARNING: Negative pressures at 0:00:00 hrs.
   
  WARNING: Negative pressures at 0:00:00 hrs.
   
  WARNING: Negative pressures at 0:00:00 hrs.
   
  WARNING: Negative pressures at 0:00:00 hrs.
   
  WARNING: Negative pressures at 0:00:00 hrs.
   
  WARNING: Negative pressures at 0:00:00 hrs.
   
  WARNING: Negative pressures at 0:00:00 hrs.
   
  WARNING: Negative pressures at 0:00:00 hrs.
   
  WARNING: Negative pressures at 0:00:00 hrs.
   
  WARNING: Negative pressures at 0:00:00 hrs.
   
  WARNING: Negative pressures at 0:00:00 hrs.
   
  WARNING: Negative pressures at 0:00:00 hrs.
   
  WARNING: Negative pressures at 0:00:00 hrs.
   
  WARNING: Negative pressures at 0:00:00 hrs.
   
  WARNING: Negative pressures at 0:00:00 hrs.
   
  WARNING: Negative pressures at 0:00:00 hrs.
   
  WARNING: Negative pressures at 0:00:00 hrs.
   
  WARNING: Negative pressures at 0:00:00 hrs.
   
  WARNING: Negative pressures at 0:00:00 hrs.
   
  WARNING: Negative pressures at 0:00:00 hrs.
   
  WARNING: Negative pressures at 0:00:00 hrs.
   
  WARNING: Negative pressures at 0:00:00 hrs.
   
  WARNING: Negative pressures at 0:00:00 hrs.
   
  WARNING: Negative pressures at 0:00:00 hrs.
   
  WARNING: Negative pressures at 0:00:00 hrs.
   
  WARNING: Negative pressures at 0:00:00 hrs.
   
  WARNING: Negative pressures at 0:00:00 hrs.
   
  WARNING: Negative pressures at 0:00:00 hrs.
   
  WARNING: Negative pressures at 0:00:00 hrs.
   
  WARNING: Negative pressures at 0:00:00 hrs.
   
  WARNING: Negative pressures at 0:00:00 hrs.
   
  WARNING: Negative pressures at 0:00:00 hrs.
   
  WARNING: Negative pressures at 0:00:00 hrs.
   
  WARNING: Negative pressures at 0:00:00 hrs.
   
  WARNING: Negative pressures at 0:00:00 hrs.
   
  WARNING: Negative pressures at 0:00:00 hrs.
   
  WARNING: Negative pressures at 0:00:00 hrs.
   
  WARNING: Negative pressures at 0:00:00 hrs.
   
  WARNING: Negative pressures at 0:00:00 hrs.
   
  WARNING: Negative pressures at 0:00:00 hrs.
   
  WARNING: Negative pressures at 0:00:00 hrs.
   
  WARNING: Negative pressures at 0:00:00 hrs.
   
  WARNING: Negative pressures at 0:00:00 hrs.
   
  WARNING: Negative pressures at 0:00:00 hrs.
   
  WARNING: Negative pressures at 0:00:00 hrs.
   
  WARNING: Negative pressures at 0:00:00 hrs.
   
  WARNING: Negative pressures at 0:00:00 hrs.
   
  WARNING: Negative pressures at 0:00:00 hrs.
   
  WARNING: Negative pressures at 0:00:00 hrs.
   
  WARNING: Negative pressures at 0:00:00 hrs.
   
  WARNING: Negative pressures at 0:00:00 hrs.
   
  WARNING: Negative pressures at 0:00:00 hrs.
   
  WARNING: Negative pressures at 0:00:00 hrs.
   
  WARNING: Negative pressures at 0:00:00 hrs.
   
  WARNING: Negative pressures at 0:00:00 hrs.
   
  WARNING: Negative pressures at 0:00:00 hrs.
   
  WARNING: Negative pressures at 0:00:00 hrs.
   
  WARNING: Negative pressures at 0:00:00 hrs.
   
  WARNING: Negative pressures at 0:00:00 hrs.
   
  WARNING: Negative pressures at 0:00:00 hrs.
   
  WARNING: Negative pressures at 0:00:00 hrs.
   
  WARNING: Negative pressures at 0:00:00 hrs.
   
  WARNING: Negative pressures at 0:00:00 hrs.
   
  WARNING: Negative pressures at 0:00:00 hrs.
   
  WARNING: Negative pressures at 0:00:00 hrs.
   
  WARNING: Negative pressures at 0:00:00 hrs.
   
  WARNING: Negative pressures at 0:00:00 hrs.
   
  WARNING: Negative pressures at 0:00:00 hrs.
   
  WARNING: Negative pressures at 0:00:00 hrs.
   
  WARNING: Negative pressures at 0:00:00 hrs.
   
  WARNING: Negative pressures at 0:00:00 hrs.
   
  WARNING: Negative pressures at 0:00:00 hrs.
   
  WARNING: Negative pressures at 0:00:00 hrs.
   
  WARNING: Negative pressures at 0:00:00 hrs.
   
  WARNING: Negative pressures at 0:00:00 hrs.
   
  WARNING: Negative pressures at 0:00:00 hrs.
   
  WARNING: Negative pressures at 0:00:00 hrs.
   
  WARNING: Negative pressures at 0:00:00 hrs.
   
  WARNING: Negative pressures at 0:00:00 hrs.
   
  WARNING: Negative pressures at 0:00:00 hrs.
   
  WARNING: Negative pressures at 0:00:00 hrs.
   
  WARNING: Negative pressures at 0:00:00 hrs.
   
  WARNING: Negative pressures at 0:00:00 hrs.
   
  WARNING: Negative pressures at 0:00:00 hrs.
   
  WARNING: Negative pressures at 0:00:00 hrs.
   
  WARNING: Negative pressures at 0:00:00 hrs.
   
  WARNING: Negative pressures at 0:00:00 hrs.
   
  WARNING: Negative pressures at 0:00:00 hrs.
   
  WARNING: Negative pressures at 0:00:00 hrs.
   
  WARNING: Negative pressures at 0:00:00 hrs.
   
  WARNING: Negative pressures at 0:00:00 hrs.
   
  WARNING: Negative pressures at 0:00:00 hrs.
   
  WARNING: Negative pressures at 0:00:00 hrs.
   
  WARNING: Negative pressures at 0:00:00 hrs.
   
  WARNING: Negative pressures at 0:00:00 hrs.
   
  WARNING: Negative pressures at 0:00:00 hrs.
   
  WARNING: Negative pressures at 0:00:00 hrs.
   
  WARNING: Negative pressures at 0:00:00 hrs.
   
  WARNING: Negative pressures at 0:00:00 hrs.
   
  WARNING: Negative pressures at 0:00:00 hrs.
   
  WARNING: Negative pressures at 0:00:00 hrs.
   
  WARNING: Negative pressures at 0:00:00 hrs.
   
  WARNING: Negative pressures at 0:00:00 hrs.
   
  WARNING: Negative pressures at 0:00:00 hrs.
   
  WARNING: Negative pressures at 0:00:00 hrs.
   
  WARNING: Negative pressures at 0:00:00 hrs.
   
  WARNING: Negative pressures at 0:00:00 hrs.
   
  WARNING: Negative pressures at 0:00:00 hrs.
   
  WARNING: Negative pressures at 0:00:00 hrs.
   
  WARNING: Negative pressures at 0:00:00 hrs.
   
  WARNING: Negative pressures at 0:00:00 hrs.
   
  WARNING: Negative pressures at 0:00:00 hrs.
   
  WARNING: Negative pressures at 0:00:00 hrs.
   
  WARNING: Negative pressures at 0:00:00 hrs.
   
  WARNING: Negative pressures at 0:00:00 hrs.
   
  WARNING: Negative pressures at 0:00:00 hrs.
   
  WARNING: Negative pressures at 0:00:00 hrs.
   
  WARNING: Negative pressures at 0:00:00 hrs.
   
  WARNING: Negative pressures at 0:00:00 hrs.
   
  WARNING: Negative pressures at 0:00:00 hrs.
   
  WARNING: Negative pressures at 0:00:00 hrs.
   
  WARNING: Negative pressures at 0:00:00 hrs.
   
  WARNING: Negative pressures at 0:00:00 hrs.
   
  WARNING: Negative pressures at 0:00:00 hrs.
   
  WARNING: Negative pressures at 0:00:00 hrs.
   
  WARNING: Negative pressures at 0:00:00 hrs.
   
  WARNING: Negative pressures at 0:00:00 hrs.
   
  WARNING: Negative pressures at 0:00:00 hrs.
   
  WARNING: Negative pressures at 0:00:00 hrs.
   
  WARNING: Negative pressures at 0:00:00 hrs.
   
  WARNING: Negative pressures at 0:00:00 hrs.
   
  WARNING: Negative pressures at 0:00:00 hrs.
   
  WARNING: Negative pressures at 0:00:00 hrs.
   
  WARNING: Negative pressures at 0:00:00 hrs.
   
  WARNING: Negative pressures at 0:00:00 hrs.
   
  WARNING: Negative pressures at 0:00:00 hrs.
   
  WARNING: Negative pressures at 0:00:00 hrs.
   
  WARNING: Negative pressures at 0:00:00 hrs.
   
  WARNING: Negative pressures at 0:00:00 hrs.
   
  WARNING: Negative pressures at 0:00:00 hrs.
   
  WARNING: Negative pressures at 0:00:00 hrs.
   
  WARNING: Negative pressures at 0:00:00 hrs.
   
  WARNING: Negative pressures at 0:00:00 hrs.
   
  WARNING: Negative pressures at 0:00:00 hrs.
   
  WARNING: Negative pressures at 0:00:00 hrs.
   
  WARNING: Negative pressures at 0:00:00 hrs.
   
  WARNING: Negative pressures at 0:00:00 hrs.
   
  WARNING: Negative pressures at 0:00:00 hrs.
   
  WARNING: Negative pressures at 0:00:00 hrs.
   
  WARNING: Negative pressures at 0:00:00 hrs.
   
  WARNING: Negative pressures at 0:00:00 hrs.
   
  WARNING: Negative pressures at 0:00:00 hrs.
   
  WARNING: Negative pressures at 0:00:00 hrs.
   
  WARNING: Negative pressures at 0:00:00 hrs.
   
  WARNING: Negative pressures at 0:00:00 hrs.
   
  WARNING: Negative pressures at 0:00:00 hrs.
   
  WARNING: Negative pressures at 0:00:00 hrs.
   
  WARNING: Negative pressures at 0:00:00 hrs.
   
  WARNING: Negative pressures at 0:00:00 hrs.
   
  WARNING: Negative pressures at 0:00:00 hrs.
   
  WARNING: Negative pressures at 0:00:00 hrs.
   
  WARNING: Negative pressures at 0:00:00 hrs.
   
  WARNING: Negative pressures at 0:00:00 hrs.
   
  WARNING: Negative pressures at 0:00:00 hrs.
   
  WARNING: Negative pressures at 0:00:00 hrs.
   
  WARNING: Negative pressures at 0:00:00 hrs.
   
  WARNING: Negative pressures at 0:00:00 hrs.
   
  WARNING: Negative pressures at 0:00:00 hrs.
   
  WARNING: Negative pressures at 0:00:00 hrs.
   
  WARNING: Negative pressures at 0:00:00 hrs.
   
  WARNING: Negative pressures at 0:00:00 hrs.
   
  WARNING: Negative pressures at 0:00:00 hrs.
   
  WARNING: Negative pressures at 0:00:00 hrs.
   
  WARNING: Negative pressures at 0:00:00 hrs.
   
  WARNING: Negative pressures at 0:00:00 hrs.
   
  WARNING: Negative pressures at 0:00:00 hrs.
   
  WARNING: Negative pressures at 0:00:00 hrs.
   
  WARNING: Negative pressures at 0:00:00 hrs.
   
  WARNING: Negative pressures at 0:00:00 hrs.
   
  WARNING: Negative pressures at 0:00:00 hrs.
   
  WARNING: Negative pressures at 0:00:00 hrs.
   
  WARNING: Negative pressures at 0:00:00 hrs.
   
  WARNING: Negative pressures at 0:00:00 hrs.
   
  WARNING: Negative pressures at 0:00:00 hrs.
   
  WARNING: Negative pressures at 0:00:00 hrs.
   
  WARNING: Negative pressures at 0:00:00 hrs.
   
  WARNING: Negative pressures at 0:00:00 hrs.
   
  WARNING: Negative pressures at 0:00:00 hrs.
   
  WARNING: Negative pressures at 0:00:00 hrs.
   
  WARNING: Negative pressures at 0:00:00 hrs.
   
  WARNING: Negative pressures at 0:00:00 hrs.
   
  WARNING: Negative pressures at 0:00:00 hrs.
   
  WARNING: Negative pressures at 0:00:00 hrs.
   
  WARNING: Negative pressures at 0:00:00 hrs.
   
  WARNING: Negative pressures at 0:00:00 hrs.
   
  WARNING: Negative pressures at 0:00:00 hrs.
   
  WARNING: Negative pressures at 0:00:00 hrs.
   
  WARNING: Negative pressures at 0:00:00 hrs.
   
  WARNING: Negative pressures at 0:00:00 hrs.
   
  WARNING: Negative pressures at 0:00:00 hrs.
   
  WARNING: Negative pressures at 0:00:00 hrs.
   
  WARNING: Negative pressures at 0:00:00 hrs.
   
  WARNING: Negative pressures at 0:00:00 hrs.
   
  WARNING: Negative pressures at 0:00:00 hrs.
   
  WARNING: Negative pressures at 0:00:00 hrs.
   
  WARNING: Negative pressures at 0:00:00 hrs.
   
  WARNING: Negative pressures at 0:00:00 hrs.
   
  WARNING: Negative pressures at 0:00:00 hrs.
   
  WARNING: Negative pressures at 0:00:00 hrs.
   
  WARNING: Negative pressures at 0:00:00 hrs.
   
  WARNING: Negative pressures at 0:00:00 hrs.
   
  WARNING: Negative pressures at 0:00:00 hrs.
   
  WARNING: Negative pressures at 0:00:00 hrs.
   
  WARNING: Negative pressures at 0:00:00 hrs.
   
  WARNING: Negative pressures at 0:00:00 hrs.
   
  WARNING: Negative pressures at 0:00:00 hrs.
   
  WARNING: Negative pressures at 0:00:00 hrs.
   
  WARNING: Negative pressures at 0:00:00 hrs.
   
  WARNING: Negative pressures at 0:00:00 hrs.
   
  WARNING: Negative pressures at 0:00:00 hrs.
   
  WARNING: Negative pressures at 0:00:00 hrs.
   
  WARNING: Negative pressures at 0:00:00 hrs.
   
  WARNING: Negative pressures at 0:00:00 hrs.
   
  WARNING: Negative pressures at 0:00:00 hrs.
   
  WARNING: Negative pressures at 0:00:00 hrs.
   
  WARNING: Negative pressures at 0:00:00 hrs.
   
  WARNING: Negative pressures at 0:00:00 hrs.
   
  WARNING: Negative pressures at 0:00:00 hrs.
   
  WARNING: Negative pressures at 0:00:00 hrs.
   
  WARNING: Negative pressures at 0:00:00 hrs.
   
  WARNING: Negative pressures at 0:00:00 hrs.
   
  WARNING: Negative pressures at 0:00:00 hrs.
   
  WARNING: Negative pressures at 0:00:00 hrs.
   
  WARNING: Negative pressures at 0:00:00 hrs.
   
  WARNING: Negative pressures at 0:00:00 hrs.
   
  WARNING: Negative pressures at 0:00:00 hrs.
   
  WARNING: Negative pressures at 0:00:00 hrs.
   
  WARNING: Negative pressures at 0:00:00 hrs.
   
  WARNING: Negative pressures at 0:00:00 hrs.
   
  WARNING: Negative pressures at 0:00:00 hrs.
   
  WARNING: Negative pressures at 0:00:00 hrs.
   
  WARNING: Negative pressures at 0:00:00 hrs.
   
  WARNING: Negative pressures at 0:00:00 hrs.
   
  WARNING: Negative pressures at 0:00:00 hrs.
   
  WARNING: Negative pressures at 0:00:00 hrs.
   
  WARNING: Negative pressures at 0:00:00 hrs.
   
  WARNING: Negative pressures at 0:00:00 hrs.
   
  WARNING: Negative pressures at 0:00:00 hrs.
   
  WARNING: Negative pressures at 0:00:00 hrs.
   
  WARNING: Negative pressures at 0:00:00 hrs.
   
  WARNING: Negative pressures at 0:00:00 hrs.
   
  WARNING: Negative pressures at 0:00:00 hrs.
   
  WARNING: Negative pressures at 0:00:00 hrs.
   
  WARNING: Negative pressures at 0:00:00 hrs.
   
  WARNING: Negative pressures at 0:00:00 hrs.
   
  WARNING: Negative pressures at 0:00:00 hrs.
   
  WARNING: Negative pressures at 0:00:00 hrs.
   
  WARNING: Negative pressures at 0:00:00 hrs.
   
  WARNING: Negative pressures at 0:00:00 hrs.
   
  WARNING: Negative pressures at 0:00:00 hrs.
   
  WARNING: Negative pressures at 0:00:00 hrs.
   
  WARNING: Negative pressures at 0:00:00 hrs.
   
  WARNING: Negative pressures at 0:00:00 hrs.
   
  WARNING: Negative pressures at 0:00:00 hrs.
   
  WARNING: Negative pressures at 0:00:00 hrs.
   
  WARNING: Negative pressures at 0:00:00 hrs.
   
  WARNING: Negative pressures at 0:00:00 hrs.
   
  WARNING: Negative pressures at 0:00:00 hrs.
   
  WARNING: Negative pressures at 0:00:00 hrs.
   
  WARNING: Negative pressures at 0:00:00 hrs.
   
  WARNING: Negative pressures at 0:00:00 hrs.
   
  WARNING: Negative pressures at 0:00:00 hrs.
   
  WARNING: Negative pressures at 0:00:00 hrs.
   
  WARNING: Negative pressures at 0:00:00 hrs.
   
  WARNING: Negative pressures at 0:00:00 hrs.
   
  WARNING: Negative pressures at 0:00:00 hrs.
   
  WARNING: Negative pressures at 0:00:00 hrs.
   
  WARNING: Negative pressures at 0:00:00 hrs.
   
  WARNING: Negative pressures at 0:00:00 hrs.
   
  WARNING: Negative pressures at 0:00:00 hrs.
   
  WARNING: Negative pressures at 0:00:00 hrs.
   
  WARNING: Negative pressures at 0:00:00 hrs.
   
  WARNING: Negative pressures at 0:00:00 hrs.
   
  WARNING: Negative pressures at 0:00:00 hrs.
   
  WARNING: Negative pressures at 0:00:00 hrs.
   
  WARNING: Negative pressures at 0:00:00 hrs.
   
  WARNING: Negative pressures at 0:00:00 hrs.
   
  WARNING: Negative pressures at 0:00:00 hrs.
   
  WARNING: Negative pressures at 0:00:00 hrs.
   
  WARNING: Negative pressures at 0:00:00 hrs.
   
  WARNING: Negative pressures at 0:00:00 hrs.
   
  WARNING: Negative pressures at 0:00:00 hrs.
   
  WARNING: Negative pressures at 0:00:00 hrs.
   
  WARNING: Negative pressures at 0:00:00 hrs.
   
  WARNING: Negative pressures at 0:00:00 hrs.
   
  WARNING: Negative pressures at 0:00:00 hrs.
   
  WARNING: Negative pressures at 0:00:00 hrs.
   
  WARNING: Negative pressures at 0:00:00 hrs.
   
  WARNING: Negative pressures at 0:00:00 hrs.
   
  WARNING: Negative pressures at 0:00:00 hrs.
   
  WARNING: Negative pressures at 0:00:00 hrs.
   
  WARNING: Negative pressures at 0:00:00 hrs.
   
  WARNING: Negative pressures at 0:00:00 hrs.
   
  WARNING: Negative pressures at 0:00:00 hrs.
   
  WARNING: Negative pressures at 0:00:00 hrs.
   
  WARNING: Negative pressures at 0:00:00 hrs.
   
  WARNING: Negative pressures at 0:00:00 hrs.
   
  WARNING: Negative pressures at 0:00:00 hrs.
   
  WARNING: Negative pressures at 0:00:00 hrs.
   
  WARNING: Negative pressures at 0:00:00 hrs.
   
  WARNING: Negative pressures at 0:00:00 hrs.
   
  WARNING: Negative pressures at 0:00:00 hrs.
   
  WARNING: Negative pressures at 0:00:00 hrs.
   
  WARNING: Negative pressures at 0:00:00 hrs.
   
  WARNING: Negative pressures at 0:00:00 hrs.
   
  WARNING: Negative pressures at 0:00:00 hrs.
   
  WARNING: Negative pressures at 0:00:00 hrs.
   
  WARNING: Negative pressures at 0:00:00 hrs.
   
  WARNING: Negative pressures at 0:00:00 hrs.
   
  WARNING: Negative pressures at 0:00:00 hrs.
   
  WARNING: Negative pressures at 0:00:00 hrs.
   
  WARNING: Negative pressures at 0:00:00 hrs.
   
  WARNING: Negative pressures at 0:00:00 hrs.
   
  WARNING: Negative pressures at 0:00:00 hrs.
   
  WARNING: Negative pressures at 0:00:00 hrs.
   
  WARNING: Negative pressures at 0:00:00 hrs.
   
  WARNING: Negative pressures at 0:00:00 hrs.
   
  WARNING: Negative pressures at 0:00:00 hrs.
   
  WARNING: Negative pressures at 0:00:00 hrs.
   
  WARNING: Negative pressures at 0:00:00 hrs.
   
  WARNING: Negative pressures at 0:00:00 hrs.
   
  WARNING: Negative pressures at 0:00:00 hrs.
   
  WARNING: Negative pressures at 0:00:00 hrs.
   
  WARNING: Negative pressures at 0:00:00 hrs.
   
  WARNING: Negative pressures at 0:00:00 hrs.
   
  WARNING: Negative pressures at 0:00:00 hrs.
   
  WARNING: Negative pressures at 0:00:00 hrs.
   
  WARNING: Negative pressures at 0:00:00 hrs.
   
  WARNING: Negative pressures at 0:00:00 hrs.
   
  WARNING: Negative pressures at 0:00:00 hrs.
   
  WARNING: Negative pressures at 0:00:00 hrs.
   
  WARNING: Negative pressures at 0:00:00 hrs.
   
  WARNING: Negative pressures at 0:00:00 hrs.
   
  WARNING: Negative pressures at 0:00:00 hrs.
   
  WARNING: Negative pressures at 0:00:00 hrs.
   
  WARNING: Negative pressures at 0:00:00 hrs.
   
  WARNING: Negative pressures at 0:00:00 hrs.
   
  WARNING: Negative pressures at 0:00:00 hrs.
   
  WARNING: Negative pressures at 0:00:00 hrs.
   
  WARNING: Negative pressures at 0:00:00 hrs.
   
  WARNING: Negative pressures at 0:00:00 hrs.
   
  WARNING: Negative pressures at 0:00:00 hrs.
   
  WARNING: Negative pressures at 0:00:00 hrs.
   
  WARNING: Negative pressures at 0:00:00 hrs.
   
  WARNING: Negative pressures at 0:00:00 hrs.
   
  WARNING: Negative pressures at 0:00:00 hrs.
   
  WARNING: Negative pressures at 0:00:00 hrs.
   
  WARNING: Negative pressures at 0:00:00 hrs.
   
  WARNING: Negative pressures at 0:00:00 hrs.
   
  WARNING: Negative pressures at 0:00:00 hrs.
   
  WARNING: Negative pressures at 0:00:00 hrs.
   
  WARNING: Negative pressures at 0:00:00 hrs.
   
  WARNING: Negative pressures at 0:00:00 hrs.
   
  WARNING: Negative pressures at 0:00:00 hrs.
   
  WARNING: Negative pressures at 0:00:00 hrs.
   
  WARNING: Negative pressures at 0:00:00 hrs.
   
  WARNING: Negative pressures at 0:00:00 hrs.
   
  WARNING: Negative pressures at 0:00:00 hrs.
   
  WARNING: Negative pressures at 0:00:00 hrs.
   
  WARNING: Negative pressures at 0:00:00 hrs.
   
  WARNING: Negative pressures at 0:00:00 hrs.
   
  WARNING: Negative pressures at 0:00:00 hrs.
   
  WARNING: Negative pressures at 0:00:00 hrs.
   
  WARNING: Negative pressures at 0:00:00 hrs.
   
  WARNING: Negative pressures at 0:00:00 hrs.
   
  WARNING: Negative pressures at 0:00:00 hrs.
   
  WARNING: Negative pressures at 0:00:00 hrs.
   
  WARNING: Negative pressures at 0:00:00 hrs.
   
  WARNING: Negative pressures at 0:00:00 hrs.
   
  WARNING: Negative pressures at 0:00:00 hrs.
   
  WARNING: Negative pressures at 0:00:00 hrs.
   
  WARNING: Negative pressures at 0:00:00 hrs.
   
  WARNING: Negative pressures at 0:00:00 hrs.
   
  WARNING: Negative pressures at 0:00:00 hrs.
   
  WARNING: Negative pressures at 0:00:00 hrs.
   
  WARNING: Negative pressures at 0:00:00 hrs.
   
  WARNING: Negative pressures at 0:00:00 hrs.
   
  WARNING: Negative pressures at 0:00:00 hrs.
   
  WARNING: Negative pressures at 0:00:00 hrs.
   
  WARNING: Negative pressures at 0:00:00 hrs.
   
  WARNING: Negative pressures at 0:00:00 hrs.
   
  WARNING: Negative pressures at 0:00:00 hrs.
   
  WARNING: Negative pressures at 0:00:00 hrs.
   
  WARNING: Negative pressures at 0:00:00 hrs.
   
  WARNING: Negative pressures at 0:00:00 hrs.
   
  WARNING: Negative pressures at 0:00:00 hrs.
   
  WARNING: Negative pressures at 0:00:00 hrs.
   
  WARNING: Negative pressures at 0:00:00 hrs.
   
  WARNING: Negative pressures at 0:00:00 hrs.
   
  WARNING: Negative pressures at 0:00:00 hrs.
   
  WARNING: Negative pressures at 0:00:00 hrs.
   
  WARNING: Negative pressures at 0:00:00 hrs.
   
  WARNING: Negative pressures at 0:00:00 hrs.
   
  WARNING: Negative pressures at 0:00:00 hrs.
   
  WARNING: Negative pressures at 0:00:00 hrs.
   
  WARNING: Negative pressures at 0:00:00 hrs.
   
  WARNING: Negative pressures at 0:00:00 hrs.
   
  WARNING: Negative pressures at 0:00:00 hrs.
   
  WARNING: Negative pressures at 0:00:00 hrs.
   
  WARNING: Negative pressures at 0:00:00 hrs.
   
  WARNING: Negative pressures at 0:00:00 hrs.
   
  WARNING: Negative pressures at 0:00:00 hrs.
   
  WARNING: Negative pressures at 0:00:00 hrs.
   
  WARNING: Negative pressures at 0:00:00 hrs.
   
  WARNING: Negative pressures at 0:00:00 hrs.
   
  WARNING: Negative pressures at 0:00:00 hrs.
   
  WARNING: Negative pressures at 0:00:00 hrs.
   
  WARNING: Negative pressures at 0:00:00 hrs.
   
  WARNING: Negative pressures at 0:00:00 hrs.
   
  WARNING: Negative pressures at 0:00:00 hrs.
   
  WARNING: Negative pressures at 0:00:00 hrs.
   
  WARNING: Negative pressures at 0:00:00 hrs.
   
  WARNING: Negative pressures at 0:00:00 hrs.
   
  WARNING: Negative pressures at 0:00:00 hrs.
   
  WARNING: Negative pressures at 0:00:00 hrs.
   
  WARNING: Negative pressures at 0:00:00 hrs.
   
  WARNING: Negative pressures at 0:00:00 hrs.
   
  WARNING: Negative pressures at 0:00:00 hrs.
   
  WARNING: Negative pressures at 0:00:00 hrs.
   
  WARNING: Negative pressures at 0:00:00 hrs.
   
  WARNING: Negative pressures at 0:00:00 hrs.
   
  WARNING: Negative pressures at 0:00:00 hrs.
   
  WARNING: Negative pressures at 0:00:00 hrs.
   
  WARNING: Negative pressures at 0:00:00 hrs.
   
  WARNING: Negative pressures at 0:00:00 hrs.
   
  WARNING: Negative pressures at 0:00:00 hrs.
   
  WARNING: Negative pressures at 0:00:00 hrs.
   
  WARNING: Negative pressures at 0:00:00 hrs.
   
  WARNING: Negative pressures at 0:00:00 hrs.
   
  WARNING: Negative pressures at 0:00:00 hrs.
   
  WARNING: Negative pressures at 0:00:00 hrs.
   
  WARNING: Negative pressures at 0:00:00 hrs.
   
  WARNING: Negative pressures at 0:00:00 hrs.
   
  WARNING: Negative pressures at 0:00:00 hrs.
   
  WARNING: Negative pressures at 0:00:00 hrs.
   
  WARNING: Negative pressures at 0:00:00 hrs.
   
  WARNING: Negative pressures at 0:00:00 hrs.
   
  WARNING: Negative pressures at 0:00:00 hrs.
   
  WARNING: Negative pressures at 0:00:00 hrs.
   
  WARNING: Negative pressures at 0:00:00 hrs.
   
  WARNING: Negative pressures at 0:00:00 hrs.
   
  WARNING: Negative pressures at 0:00:00 hrs.
   
  WARNING: Negative pressures at 0:00:00 hrs.
   
  WARNING: Negative pressures at 0:00:00 hrs.
   
  WARNING: Negative pressures at 0:00:00 hrs.
   
  WARNING: Negative pressures at 0:00:00 hrs.
   
  WARNING: Negative pressures at 0:00:00 hrs.
   
  WARNING: Negative pressures at 0:00:00 hrs.
   
  WARNING: Negative pressures at 0:00:00 hrs.
   
  WARNING: Negative pressures at 0:00:00 hrs.
   
  WARNING: Negative pressures at 0:00:00 hrs.
   
  WARNING: Negative pressures at 0:00:00 hrs.
   
  WARNING: Negative pressures at 0:00:00 hrs.
   
  WARNING: Negative pressures at 0:00:00 hrs.
   
  WARNING: Negative pressures at 0:00:00 hrs.
   
  WARNING: Negative pressures at 0:00:00 hrs.
   
  WARNING: Negative pressures at 0:00:00 hrs.
   
  WARNING: Negative pressures at 0:00:00 hrs.
   
  WARNING: Negative pressures at 0:00:00 hrs.
   
  WARNING: Negative pressures at 0:00:00 hrs.
   
  WARNING: Negative pressures at 0:00:00 hrs.
   
  WARNING: Negative pressures at 0:00:00 hrs.
   
  WARNING: Negative pressures at 0:00:00 hrs.
   
  WARNING: Negative pressures at 0:00:00 hrs.
   
  WARNING: Negative pressures at 0:00:00 hrs.
   
[...]
  WARNING: Negative pressures at 0:00:00 hrs.
   
  WARNING: Negative pressures at 0:00:00 hrs.
   
  WARNING: Negative pressures at 0:00:00 hrs.
   
  WARNING: Negative pressures at 0:00:00 hrs.
   
  WARNING: Negative pressures at 0:00:00 hrs.
   
  WARNING: Negative pressures at 0:00:00 hrs.
   
  WARNING: Negative pressures at 0:00:00 hrs.
   
  WARNING: Negative pressures at 0:00:00 hrs.
   
  WARNING: Negative pressures at 0:00:00 hrs.
   
  WARNING: Negative pressures at 0:00:00 hrs.
   
  WARNING: Negative pressures at 0:00:00 hrs.
   
  WARNING: Negative pressures at 0:00:00 hrs.
   
  WARNING: Negative pressures at 0:00:00 hrs.
   
  WARNING: Negative pressures at 0:00:00 hrs.
   
  WARNING: Negative pressures at 0:00:00 hrs.
   
  WARNING: Negative pressures at 0:00:00 hrs.
   
  WARNING: Negative pressures at 0:00:00 hrs.
   
  WARNING: Negative pressures at 0:00:00 hrs.
   
  WARNING: Negative pressures at 0:00:00 hrs.
   
  WARNING: Negative pressures at 0:00:00 hrs.
   
  WARNING: Negative pressures at 0:00:00 hrs.
   
  WARNING: Negative pressures at 0:00:00 hrs.
   
  WARNING: Negative pressures at 0:00:00 hrs.
   
  WARNING: Negative pressures at 0:00:00 hrs.
   
  WARNING: Negative pressures at 0:00:00 hrs.
   
  WARNING: Negative pressures at 0:00:00 hrs.
   
  WARNING: Negative pressures at 0:00:00 hrs.
   
  WARNING: Negative pressures at 0:00:00 hrs.
   
  WARNING: Negative pressures at 0:00:00 hrs.
   
  WARNING: Negative pressures at 0:00:00 hrs.
   
  WARNING: Negative pressures at 0:00:00 hrs.
   
  WARNING: Negative pressures at 0:00:00 hrs.
   
  WARNING: Negative pressures at 0:00:00 hrs.
   
  WARNING: Negative pressures at 0:00:00 hrs.
   
  WARNING: Negative pressures at 0:00:00 hrs.
   
  WARNING: Negative pressures at 0:00:00 hrs.
   
  WARNING: Negative pressures at 0:00:00 hrs.
   
  WARNING: Negative pressures at 0:00:00 hrs.
   
  WARNING: Negative pressures at 0:00:00 hrs.
   
  WARNING: Negative pressures at 0:00:00 hrs.
   
  WARNING: Negative pressures at 0:00:00 hrs.
   
  WARNING: Negative pressures at 0:00:00 hrs.
   
  WARNING: Negative pressures at 0:00:00 hrs.
   
  WARNING: Negative pressures at 0:00:00 hrs.
   
  WARNING: Negative pressures at 0:00:00 hrs.
   
  WARNING: Negative pressures at 0:00:00 hrs.
   
  WARNING: Negative pressures at 0:00:00 hrs.
   
  WARNING: Negative pressures at 0:00:00 hrs.
   
  WARNING: Negative pressures at 0:00:00 hrs.
   
  WARNING: Negative pressures at 0:00:00 hrs.
   
  WARNING: Negative pressures at 0:00:00 hrs.
   
  WARNING: Negative pressures at 0:00:00 hrs.
   
  WARNING: Negative pressures at 0:00:00 hrs.
   
  WARNING: Negative pressures at 0:00:00 hrs.
   
  WARNING: Negative pressures at 0:00:00 hrs.
   
  WARNING: Negative pressures at 0:00:00 hrs.
   
  WARNING: Negative pressures at 0:00:00 hrs.
   
  WARNING: Negative pressures at 0:00:00 hrs.
   
  WARNING: Negative pressures at 0:00:00 hrs.
   
  WARNING: Negative pressures at 0:00:00 hrs.
   
  WARNING: Negative pressures at 0:00:00 hrs.
   
  WARNING: Negative pressures at 0:00:00 hrs.
   
  WARNING: Negative pressures at 0:00:00 hrs.
   
  WARNING: Negative pressures at 0:00:00 hrs.
   
  WARNING: Negative pressures at 0:00:00 hrs.
   
  WARNING: Negative pressures at 0:00:00 hrs.
   
  WARNING: Negative pressures at 0:00:00 hrs.
   
  WARNING: Negative pressures at 0:00:00 hrs.
   
  WARNING: Negative pressures at 0:00:00 hrs.
   
  WARNING: Negative pressures at 0:00:00 hrs.
   
  WARNING: Negative pressures at 0:00:00 hrs.
   
  WARNING: Negative pressures at 0:00:00 hrs.
   
  WARNING: Negative pressures at 0:00:00 hrs.
   
  WARNING: Negative pressures at 0:00:00 hrs.
   
  WARNING: Negative pressures at 0:00:00 hrs.
   
  WARNING: Negative pressures at 0:00:00 hrs.
   
  WARNING: Negative pressures at 0:00:00 hrs.
   
  WARNING: Negative pressures at 0:00:00 hrs.
   
  WARNING: Negative pressures at 0:00:00 hrs.
   
  WARNING: Negative pressures at 0:00:00 hrs.
   
  WARNING: Negative pressures at 0:00:00 hrs.
   
  WARNING: Negative pressures at 0:00:00 hrs.
   
  WARNING: Negative pressures at 0:00:00 hrs.
   
  WARNING: Negative pressures at 0:00:00 hrs.
   
  WARNING: Negative pressures at 0:00:00 hrs.
   
  WARNING: Negative pressures at 0:00:00 hrs.
   
  WARNING: Negative pressures at 0:00:00 hrs.
   
  WARNING: Negative pressures at 0:00:00 hrs.
   
  WARNING: Negative pressures at 0:00:00 hrs.
   
  WARNING: Negative pressures at 0:00:00 hrs.
   
  WARNING: Negative pressures at 0:00:00 hrs.
   
  WARNING: Negative pressures at 0:00:00 hrs.
   
  WARNING: Negative pressures at 0:00:00 hrs.
   
  WARNING: Negative pressures at 0:00:00 hrs.
   
  WARNING: Negative pressures at 0:00:00 hrs.
   
  WARNING: Negative pressures at 0:00:00 hrs.
   
  WARNING: Negative pressures at 0:00:00 hrs.
   
  WARNING: Negative pressures at 0:00:00 hrs.
   
  WARNING: Negative pressures at 0:00:00 hrs.
   
  WARNING: Negative pressures at 0:00:00 hrs.
   
  WARNING: Negative pressures at 0:00:00 hrs.
   
  WARNING: Negative pressures at 0:00:00 hrs.
   
  WARNING: Negative pressures at 0:00:00 hrs.
   
  WARNING: Negative pressures at 0:00:00 hrs.
   
  WARNING: Negative pressures at 0:00:00 hrs.
   
  WARNING: Negative pressures at 0:00:00 hrs.
   
  WARNING: Negative pressures at 0:00:00 hrs.
   
  WARNING: Negative pressures at 0:00:00 hrs.
   
  WARNING: Negative pressures at 0:00:00 hrs.
   
  WARNING: Negative pressures at 0:00:00 hrs.
   
  WARNING: Negative pressures at 0:00:00 hrs.
   
  WARNING: Negative pressures at 0:00:00 hrs.
   
  WARNING: Negative pressures at 0:00:00 hrs.
   
  WARNING: Negative pressures at 0:00:00 hrs.
   
  WARNING: Negative pressures at 0:00:00 hrs.
   
  WARNING: Negative pressures at 0:00:00 hrs.
   
  WARNING: Negative pressures at 0:00:00 hrs.
   
  WARNING: Negative pressures at 0:00:00 hrs.
   
  WARNING: Negative pressures at 0:00:00 hrs.
   
  WARNING: Negative pressures at 0:00:00 hrs.
   
  WARNING: Negative pressures at 0:00:00 hrs.
   
  WARNING: Negative pressures at 0:00:00 hrs.
   
  WARNING: Negative pressures at 0:00:00 hrs.
   
  WARNING: Negative pressures at 0:00:00 hrs.
   
  WARNING: Negative pressures at 0:00:00 hrs.
   
  WARNING: Negative pressures at 0:00:00 hrs.
   
  WARNING: Negative pressures at 0:00:00 hrs.
   
  WARNING: Negative pressures at 0:00:00 hrs.
   
  WARNING: Negative pressures at 0:00:00 hrs.
   
  WARNING: Negative pressures at 0:00:00 hrs.
   
  WARNING: Negative pressures at 0:00:00 hrs.
   
  WARNING: Negative pressures at 0:00:00 hrs.
   
  WARNING: Negative pressures at 0:00:00 hrs.
   
  WARNING: Negative pressures at 0:00:00 hrs.
   
  WARNING: Negative pressures at 0:00:00 hrs.
   
  WARNING: Negative pressures at 0:00:00 hrs.
   
  WARNING: Negative pressures at 0:00:00 hrs.
   
  WARNING: Negative pressures at 0:00:00 hrs.
   
  WARNING: Negative pressures at 0:00:00 hrs.
   
  WARNING: Negative pressures at 0:00:00 hrs.
   
  WARNING: Negative pressures at 0:00:00 hrs.
   
  WARNING: Negative pressures at 0:00:00 hrs.
   
  WARNING: Negative pressures at 0:00:00 hrs.
   
  WARNING: Negative pressures at 0:00:00 hrs.
   
  WARNING: Negative pressures at 0:00:00 hrs.
   
  WARNING: Negative pressures at 0:00:00 hrs.
   
  WARNING: Negative pressures at 0:00:00 hrs.
   
  WARNING: Negative pressures at 0:00:00 hrs.
   
  WARNING: Negative pressures at 0:00:00 hrs.
   
  WARNING: Negative pressures at 0:00:00 hrs.
   
  WARNING: Negative pressures at 0:00:00 hrs.
   
  WARNING: Negative pressures at 0:00:00 hrs.
   
  WARNING: Negative pressures at 0:00:00 hrs.
   
  WARNING: Negative pressures at 0:00:00 hrs.
   
  WARNING: Negative pressures at 0:00:00 hrs.
   
  WARNING: Negative pressures at 0:00:00 hrs.
   
  WARNING: Negative pressures at 0:00:00 hrs.
   
  WARNING: Negative pressures at 0:00:00 hrs.
   
  WARNING: Negative pressures at 0:00:00 hrs.
   
  WARNING: Negative pressures at 0:00:00 hrs.
   
  WARNING: Negative pressures at 0:00:00 hrs.
   
  WARNING: Negative pressures at 0:00:00 hrs.
   
  WARNING: Negative pressures at 0:00:00 hrs.
   
  WARNING: Negative pressures at 0:00:00 hrs.
   
  WARNING: Negative pressures at 0:00:00 hrs.
   
  WARNING: Negative pressures at 0:00:00 hrs.
   
  WARNING: Negative pressures at 0:00:00 hrs.
   
  WARNING: Negative pressures at 0:00:00 hrs.
   
  WARNING: Negative pressures at 0:00:00 hrs.
   
  WARNING: Negative pressures at 0:00:00 hrs.
   
  WARNING: Negative pressures at 0:00:00 hrs.
   
  WARNING: Negative pressures at 0:00:00 hrs.
   
  WARNING: Negative pressures at 0:00:00 hrs.
   
  WARNING: Negative pressures at 0:00:00 hrs.
   
  WARNING: Negative pressures at 0:00:00 hrs.
   
  WARNING: Negative pressures at 0:00:00 hrs.
   
  WARNING: Negative pressures at 0:00:00 hrs.
   
  WARNING: Negative pressures at 0:00:00 hrs.
   
  WARNING: Negative pressures at 0:00:00 hrs.
   
  WARNING: Negative pressures at 0:00:00 hrs.
   
  WARNING: Negative pressures at 0:00:00 hrs.
   
  WARNING: Negative pressures at 0:00:00 hrs.
   
  WARNING: Negative pressures at 0:00:00 hrs.
   
  WARNING: Negative pressures at 0:00:00 hrs.
   
  WARNING: Negative pressures at 0:00:00 hrs.
   
  WARNING: Negative pressures at 0:00:00 hrs.
   
  WARNING: Negative pressures at 0:00:00 hrs.
   
  WARNING: Negative pressures at 0:00:00 hrs.
   
  WARNING: Negative pressures at 0:00:00 hrs.
   
  WARNING: Negative pressures at 0:00:00 hrs.
   
  WARNING: Negative pressures at 0:00:00 hrs.
   
  WARNING: Negative pressures at 0:00:00 hrs.
   
  WARNING: Negative pressures at 0:00:00 hrs.
   
  WARNING: Negative pressures at 0:00:00 hrs.
   
  WARNING: Negative pressures at 0:00:00 hrs.
   
  WARNING: Negative pressures at 0:00:00 hrs.
   
  WARNING: Negative pressures at 0:00:00 hrs.
   
  WARNING: Negative pressures at 0:00:00 hrs.
   
  WARNING: Negative pressures at 0:00:00 hrs.
   
  WARNING: Negative pressures at 0:00:00 hrs.
   
  WARNING: Negative pressures at 0:00:00 hrs.
   
  WARNING: Negative pressures at 0:00:00 hrs.
   
  WARNING: Negative pressures at 0:00:00 hrs.
   
  WARNING: Negative pressures at 0:00:00 hrs.
   
  WARNING: Negative pressures at 0:00:00 hrs.
   
  WARNING: Negative pressures at 0:00:00 hrs.
   
  WARNING: Negative pressures at 0:00:00 hrs.
   
  WARNING: Negative pressures at 0:00:00 hrs.
   
  WARNING: Negative pressures at 0:00:00 hrs.
   
  WARNING: Negative pressures at 0:00:00 hrs.
   
  WARNING: Negative pressures at 0:00:00 hrs.
   
  WARNING: Negative pressures at 0:00:00 hrs.
   
  WARNING: Negative pressures at 0:00:00 hrs.
   
  WARNING: Negative pressures at 0:00:00 hrs.
   
  WARNING: Negative pressures at 0:00:00 hrs.
   
  WARNING: Negative pressures at 0:00:00 hrs.
   
  WARNING: Negative pressures at 0:00:00 hrs.
   
  WARNING: Negative pressures at 0:00:00 hrs.
   
  WARNING: Negative pressures at 0:00:00 hrs.
   
  WARNING: Negative pressures at 0:00:00 hrs.
   
  WARNING: Negative pressures at 0:00:00 hrs.
   
  WARNING: Negative pressures at 0:00:00 hrs.
   
  WARNING: Negative pressures at 0:00:00 hrs.
   
  WARNING: Negative pressures at 0:00:00 hrs.
   
  WARNING: Negative pressures at 0:00:00 hrs.
   
  WARNING: Negative pressures at 0:00:00 hrs.
   
  WARNING: Negative pressures at 0:00:00 hrs.
   
  WARNING: Negative pressures at 0:00:00 hrs.
   
  WARNING: Negative pressures at 0:00:00 hrs.
   
  WARNING: Negative pressures at 0:00:00 hrs.
   
  WARNING: Negative pressures at 0:00:00 hrs.
   
  WARNING: Negative pressures at 0:00:00 hrs.
   
  WARNING: Negative pressures at 0:00:00 hrs.
   
  WARNING: Negative pressures at 0:00:00 hrs.
   
  WARNING: Negative pressures at 0:00:00 hrs.
   
  WARNING: Negative pressures at 0:00:00 hrs.
   
  WARNING: Negative pressures at 0:00:00 hrs.
   
  WARNING: Negative pressures at 0:00:00 hrs.
   
  WARNING: Negative pressures at 0:00:00 hrs.
   
  WARNING: Negative pressures at 0:00:00 hrs.
   
  WARNING: Negative pressures at 0:00:00 hrs.
   
  WARNING: Negative pressures at 0:00:00 hrs.
   
  WARNING: Negative pressures at 0:00:00 hrs.
   
  WARNING: Negative pressures at 0:00:00 hrs.
   
  WARNING: Negative pressures at 0:00:00 hrs.
   
  WARNING: Negative pressures at 0:00:00 hrs.
   
  WARNING: Negative pressures at 0:00:00 hrs.
   
  WARNING: Negative pressures at 0:00:00 hrs.
   
  WARNING: Negative pressures at 0:00:00 hrs.
   
  WARNING: Negative pressures at 0:00:00 hrs.
   
  WARNING: Negative pressures at 0:00:00 hrs.
   
  WARNING: Negative pressures at 0:00:00 hrs.
   
  WARNING: Negative pressures at 0:00:00 hrs.
   
  WARNING: Negative pressures at 0:00:00 hrs.
   
  WARNING: Negative pressures at 0:00:00 hrs.
   
  WARNING: Negative pressures at 0:00:00 hrs.
   
  WARNING: Negative pressures at 0:00:00 hrs.
   
  WARNING: Negative pressures at 0:00:00 hrs.
   
  WARNING: Negative pressures at 0:00:00 hrs.
   
  WARNING: Negative pressures at 0:00:00 hrs.
   
  WARNING: Negative pressures at 0:00:00 hrs.
   
  WARNING: Negative pressures at 0:00:00 hrs.
   
  WARNING: Negative pressures at 0:00:00 hrs.
   
  WARNING: Negative pressures at 0:00:00 hrs.
   
  WARNING: Negative pressures at 0:00:00 hrs.
   
  WARNING: Negative pressures at 0:00:00 hrs.
   
  WARNING: Negative pressures at 0:00:00 hrs.
   
  WARNING: Negative pressures at 0:00:00 hrs.
   
  WARNING: Negative pressures at 0:00:00 hrs.
   
  WARNING: Negative pressures at 0:00:00 hrs.
   
  WARNING: Negative pressures at 0:00:00 hrs.
   
  WARNING: Negative pressures at 0:00:00 hrs.
   
  WARNING: Negative pressures at 0:00:00 hrs.
   
  WARNING: Negative pressures at 0:00:00 hrs.
   
  WARNING: Negative pressures at 0:00:00 hrs.
   
  WARNING: Negative pressures at 0:00:00 hrs.
   
  WARNING: Negative pressures at 0:00:00 hrs.
   
  WARNING: Negative pressures at 0:00:00 hrs.
   
  WARNING: Negative pressures at 0:00:00 hrs.
   
  WARNING: Negative pressures at 0:00:00 hrs.
   
  WARNING: Negative pressures at 0:00:00 hrs.
   
  WARNING: Negative pressures at 0:00:00 hrs.
   
  WARNING: Negative pressures at 0:00:00 hrs.
   
  WARNING: Negative pressures at 0:00:00 hrs.
   
  WARNING: Negative pressures at 0:00:00 hrs.
   
  WARNING: Negative pressures at 0:00:00 hrs.
   
  WARNING: Negative pressures at 0:00:00 hrs.
   
  WARNING: Negative pressures at 0:00:00 hrs.
   
  WARNING: Negative pressures at 0:00:00 hrs.
   
  WARNING: Negative pressures at 0:00:00 hrs.
   
  WARNING: Negative pressures at 0:00:00 hrs.
   
  WARNING: Negative pressures at 0:00:00 hrs.
   
  WARNING: Negative pressures at 0:00:00 hrs.
   
  WARNING: Negative pressures at 0:00:00 hrs.
   
  WARNING: Negative pressures at 0:00:00 hrs.
   
  WARNING: Negative pressures at 0:00:00 hrs.
   
  WARNING: Negative pressures at 0:00:00 hrs.
   
  WARNING: Negative pressures at 0:00:00 hrs.
   
  WARNING: Negative pressures at 0:00:00 hrs.
   
  WARNING: Negative pressures at 0:00:00 hrs.
   
  WARNING: Negative pressures at 0:00:00 hrs.
   
  WARNING: Negative pressures at 0:00:00 hrs.
   
  WARNING: Negative pressures at 0:00:00 hrs.
   
  WARNING: Negative pressures at 0:00:00 hrs.
   
  WARNING: Negative pressures at 0:00:00 hrs.
   
  WARNING: Negative pressures at 0:00:00 hrs.
   
  WARNING: Negative pressures at 0:00:00 hrs.
   
  WARNING: Negative pressures at 0:00:00 hrs.
   
  WARNING: Negative pressures at 0:00:00 hrs.
   
  WARNING: Negative pressures at 0:00:00 hrs.
   
  WARNING: Negative pressures at 0:00:00 hrs.
   
  WARNING: Negative pressures at 0:00:00 hrs.
   
  WARNING: Negative pressures at 0:00:00 hrs.
   
  WARNING: Negative pressures at 0:00:00 hrs.
   
  WARNING: Negative pressures at 0:00:00 hrs.
   
  WARNING: Negative pressures at 0:00:00 hrs.
   
  WARNING: Negative pressures at 0:00:00 hrs.
   
  WARNING: Negative pressures at 0:00:00 hrs.
   
  WARNING: Negative pressures at 0:00:00 hrs.
   
  WARNING: Negative pressures at 0:00:00 hrs.
   
  WARNING: Negative pressures at 0:00:00 hrs.
   
  WARNING: Negative pressures at 0:00:00 hrs.
   
  WARNING: Negative pressures at 0:00:00 hrs.
   
  WARNING: Negative pressures at 0:00:00 hrs.
   
  WARNING: Negative pressures at 0:00:00 hrs.
   
  WARNING: Negative pressures at 0:00:00 hrs.
   
  WARNING: Negative pressures at 0:00:00 hrs.
   
  WARNING: Negative pressures at 0:00:00 hrs.
   
  WARNING: Negative pressures at 0:00:00 hrs.
   
  WARNING: Negative pressures at 0:00:00 hrs.
   
  WARNING: Negative pressures at 0:00:00 hrs.
   
  WARNING: Negative pressures at 0:00:00 hrs.
   
  WARNING: Negative pressures at 0:00:00 hrs.
   
  WARNING: Negative pressures at 0:00:00 hrs.
   
  WARNING: Negative pressures at 0:00:00 hrs.
   
  WARNING: Negative pressures at 0:00:00 hrs.
   
  WARNING: Negative pressures at 0:00:00 hrs.
   
  WARNING: Negative pressures at 0:00:00 hrs.
   
  WARNING: Negative pressures at 0:00:00 hrs.
   
  WARNING: Negative pressures at 0:00:00 hrs.
   
  WARNING: Negative pressures at 0:00:00 hrs.
   
  WARNING: Negative pressures at 0:00:00 hrs.
   
  WARNING: Negative pressures at 0:00:00 hrs.
   
  WARNING: Negative pressures at 0:00:00 hrs.
   
  WARNING: Negative pressures at 0:00:00 hrs.
   
  WARNING: Negative pressures at 0:00:00 hrs.
   
  WARNING: Negative pressures at 0:00:00 hrs.
   
  WARNING: Negative pressures at 0:00:00 hrs.
   
  WARNING: Negative pressures at 0:00:00 hrs.
   
  WARNING: Negative pressures at 0:00:00 hrs.
   
  WARNING: Negative pressures at 0:00:00 hrs.
   
  WARNING: Negative pressures at 0:00:00 hrs.
   
  WARNING: Negative pressures at 0:00:00 hrs.
   
  WARNING: Negative pressures at 0:00:00 hrs.
   
  WARNING: Negative pressures at 0:00:00 hrs.
   
  WARNING: Negative pressures at 0:00:00 hrs.
   
  WARNING: Negative pressures at 0:00:00 hrs.
   
  WARNING: Negative pressures at 0:00:00 hrs.
   
  WARNING: Negative pressures at 0:00:00 hrs.
   
  WARNING: Negative pressures at 0:00:00 hrs.
   
  WARNING: Negative pressures at 0:00:00 hrs.
   
  WARNING: Negative pressures at 0:00:00 hrs.
   
  WARNING: Negative pressures at 0:00:00 hrs.
   
  WARNING: Negative pressures at 0:00:00 hrs.
   
  WARNING: Negative pressures at 0:00:00 hrs.
   
  WARNING: Negative pressures at 0:00:00 hrs.
   
  WARNING: Negative pressures at 0:00:00 hrs.
   
  WARNING: Negative pressures at 0:00:00 hrs.
   
  WARNING: Negative pressures at 0:00:00 hrs.
   
  WARNING: Negative pressures at 0:00:00 hrs.
   
  WARNING: Negative pressures at 0:00:00 hrs.
   
  WARNING: Negative pressures at 0:00:00 hrs.
   
  WARNING: Negative pressures at 0:00:00 hrs.
   
  WARNING: Negative pressures at 0:00:00 hrs.
   
  WARNING: Negative pressures at 0:00:00 hrs.
   
  WARNING: Negative pressures at 0:00:00 hrs.
   
  WARNING: Negative pressures at 0:00:00 hrs.
   
  WARNING: Negative pressures at 0:00:00 hrs.
   
  WARNING: Negative pressures at 0:00:00 hrs.
   
  WARNING: Negative pressures at 0:00:00 hrs.
   
  WARNING: Negative pressures at 0:00:00 hrs.
   
  WARNING: Negative pressures at 0:00:00 hrs.
   
  WARNING: Negative pressures at 0:00:00 hrs.
   
  WARNING: Negative pressures at 0:00:00 hrs.
   
  WARNING: Negative pressures at 0:00:00 hrs.
   
  WARNING: Negative pressures at 0:00:00 hrs.
   
  WARNING: Negative pressures at 0:00:00 hrs.
   
  WARNING: Negative pressures at 0:00:00 hrs.
   
  WARNING: Negative pressures at 0:00:00 hrs.
   
  WARNING: Negative pressures at 0:00:00 hrs.
   
  WARNING: Negative pressures at 0:00:00 hrs.
   
  WARNING: Negative pressures at 0:00:00 hrs.
   
  WARNING: Negative pressures at 0:00:00 hrs.
   
  WARNING: Negative pressures at 0:00:00 hrs.
   
  WARNING: Negative pressures at 0:00:00 hrs.
   
  WARNING: Negative pressures at 0:00:00 hrs.
   
  WARNING: Negative pressures at 0:00:00 hrs.
   
  WARNING: Negative pressures at 0:00:00 hrs.
   
  WARNING: Negative pressures at 0:00:00 hrs.
   
  WARNING: Negative pressures at 0:00:00 hrs.
   