  Page 1                                    Tue May 27 14:00:15 2025

  ******************************************************************
  *                           E P A N E T                          *
  *                   Hydraulic and Water Quality                  *
  *                   Analysis for Pipe Networks                   *
  *                         Version 2.2                            *
  ******************************************************************
  
  Analysis begun Tue May 27 14:00:15 2025

  WARNING: Maximum trials exceeded at 0:00:00 hrs. System may be unstable.
   