  Page 1                                    Thu May 15 18:28:55 2025

  ******************************************************************
  *                           E P A N E T                          *
  *                   Hydraulic and Water Quality                  *
  *                   Analysis for Pipe Networks                   *
  *                         Version 2.2                            *
  ******************************************************************
  
  Analysis begun Thu May 15 18:28:55 2025

  WARNING: Maximum trials exceeded at 0:00:00 hrs. System may be unstable.
   
  WARNING: Maximum trials exceeded at 0:00:00 hrs. System may be unstable.
   
  WARNING: Maximum trials exceeded at 0:00:00 hrs. System may be unstable.
   
  WARNING: Maximum trials exceeded at 0:00:00 hrs. System may be unstable.
   