  Page 1                                    Sun May 18 15:56:08 2025

  ******************************************************************
  *                           E P A N E T                          *
  *                   Hydraulic and Water Quality                  *
  *                   Analysis for Pipe Networks                   *
  *                         Version 2.2                            *
  ******************************************************************
  
  Analysis begun Sun May 18 15:56:08 2025

  WARNING: Maximum trials exceeded at 0:00:00 hrs. System may be unstable.
   
  WARNING: Maximum trials exceeded at 0:00:00 hrs. System may be unstable.
   