  Page 1                                    Mon Apr 14 11:22:03 2025

  ******************************************************************
  *                           E P A N E T                          *
  *                   Hydraulic and Water Quality                  *
  *                   Analysis for Pipe Networks                   *
  *                         Version 2.2                            *
  ******************************************************************
  
  Analysis begun Mon Apr 14 11:22:03 2025

  WARNING: Maximum trials exceeded at 0:00:00 hrs. System may be unstable.
  WARNING: Negative pressures at 0:00:00 hrs.
  WARNING: Pump 10 open but exceeds maximum flow at 0:00:00 hrs.
  WARNING: Pump 17 open but exceeds maximum flow at 0:00:00 hrs.
   
  WARNING: Maximum trials exceeded at 0:00:00 hrs. System may be unstable.
  WARNING: Negative pressures at 0:00:00 hrs.
  WARNING: Pump 10 open but exceeds maximum flow at 0:00:00 hrs.
  WARNING: Pump 17 open but exceeds maximum flow at 0:00:00 hrs.
   
  WARNING: Maximum trials exceeded at 0:00:00 hrs. System may be unstable.
   
  WARNING: Maximum trials exceeded at 0:00:00 hrs. System may be unstable.
   
  WARNING: Maximum trials exceeded at 0:00:00 hrs. System may be unstable.
   
  WARNING: Maximum trials exceeded at 0:00:00 hrs. System may be unstable.
  WARNING: Negative pressures at 0:00:00 hrs.
  WARNING: Pump 10 open but exceeds maximum flow at 0:00:00 hrs.
  WARNING: Pump 17 open but exceeds maximum flow at 0:00:00 hrs.
   
  WARNING: Maximum trials exceeded at 0:00:00 hrs. System may be unstable.
   
  WARNING: Maximum trials exceeded at 0:00:00 hrs. System may be unstable.
   