[TITLE]
Generated from GeoPackage

[JUNCTIONS]
;ID     Elevation       Demand      Pattern
Junction-48813     105.53599548339844       0 
Junction-11447     85.27999877929688       0 
Junction-23446     114.26000213623047       1.188345284599962 
Junction-9981     124.17500305175781       1.505237311074308 
Junction-33993     85.01000213623047       0.02881910651922226 
Junction-11315     102.86000061035156       0 
Junction-473829     109.8883285522461       0 
Junction-23570     97.30999755859375       0 
Junction-467411     103.08000183105469       0.738778459106821 
Junction-42538     84.51158905029297       0 
Junction-60323     107.85499572753906       2.3308747294929675 
Junction-48401     111.31999969482422       0 
Junction-474084     110.5633316040039       0 
Junction-34096     87.81999969482422       0 
Junction-471899     87.4800033569336       1.986302392522918 
Junction-474072     107.19000244140625       0 
Junction-472492     111.99500274658203       0 
Junction-11191     107.11000061035156       0 
Junction-23597     103.29499816894531       0 
Junction-62477     110.69000244140625       nan 
Junction-473880     104.5999984741211       0 
Junction-465565     106.42500305175781       2.0235277313979596 
Junction-34006     95.42000579833984       0 
Junction-33755     87.30499267578125       0 
Junction-22900     111.20499420166016       0 
Junction-476117     109.09500122070312       0 
Junction-11198     104.8479995727539       0 
Junction-34394     78.55049133300781       0 
Junction-53743     112.74400329589844       1.4107422961130143 
Junction-23444     116.10999298095703       0 
Junction-60608     96.625       1.9891658928002232 
Junction-464122     93.3463363647461       0 
Junction-10826     122.19000244140625       10.49370867336058 
Junction-451223     87.92916870117188       0 
Junction-33579     101.086669921875       4.270407166586318 
Junction-58114     120.08499908447266       10.52138923095117 
Junction-476208     107.75       0 
Junction-54142     107.79750061035156       0 
Junction-9281     110.6433334350586       1.1988447581617598 
Junction-466029     104.47999572753906       0 
Junction-23698     94.94000244140625       0 
Junction-475421     125.97667694091797       0 
Junction-23258     94.86800384521484       1.4250597974995396 
Junction-33768     116.6066665649414       7.459372262730761 
Junction-42523     96.03500366210938       0 
Junction-33883     107.02999877929688       3.891472661558683 
Junction-49385     85.69249725341797       0.08309606462717056 
Junction-54465     115.8933334350586       4.463214647778897 
Junction-23827     80.41666412353516       0 
Junction-54611     86.08999633789062       0 
Junction-54275     126.0199966430664       0 
Junction-42185     115.71332550048828       1.3935614591791083 
Junction-54456     89.15750122070312       0 
Junction-23917     84.45000457763672       0.03671075031161308 
Junction-23599     108.80000305175781       0 
Junction-23568     101.94999694824219       2.031163787047414 
Junction-41798     101.559326171875       0 
Junction-58242     103.27999877929688       0 
Junction-9506     120.9333267211914       0.9124962953655361 
Junction-49327     92.37999725341797       0.05068187415599823 
Junction-58280     87.19204711914062       0 
Junction-476061     109.37999725341797       0 
Junction-34107     79.61333465576172       0 
Junction-22808     115.15499877929688       0 
Junction-10396     110.95500183105469       0 
Junction-60615     80.68000030517578       7.559593948786816 
Junction-10815     115.64500427246094       0 
Junction-23704     84.31500244140625       0 
Junction-21329     122.91666412353516       1.2857036351086364 
Junction-33999     103.04666900634766       0 
Junction-476226     107.33000183105469       0 
Junction-11443     85.9949951171875       0.05869043245911598 
Junction-53973     125.02499389648438       0 
Junction-23918     78.93333435058594       0 
Junction-33896     93.5199966430664       0 
Junction-470197     131.83999633789062       0 
Junction-22521     119.61000061035156       2.8882993790565807 
Junction-41523     127.20999908447266       0.7597773238654544 
Junction-469074     121.44499969482422       1.0489889574791342 
Junction-33468     113.3699951171875       3.4877219228673852 
Junction-33591     105.40666961669922       0 
Junction-48986     105.05499267578125       2.417733853534731 
Junction-10287     111.89999389648438       0 
Junction-62462     111.15999603271484       nan 
Junction-60430     108.12667083740234       2.8882993790565807 
Junction-54321     111.13999938964844       1.887989432101859 
Junction-53648     119.51200103759766       4.138686483290134 
Junction-34105     86.95500183105469       0.04375477507710457 
Junction-10395     111.0       2.0731613518347567 
Junction-11183     87.23999786376953       0 
Junction-9501     119.52999877929688       15.753926560434708 
Junction-11014     88.49000549316406       0 
Junction-62447     84.5217514038086       nan 
Junction-23426     92.43000030517578       2.324193283755897 
Junction-473890     111.92499542236328       0 
Junction-62481     103.66000366210938       nan 
Junction-32327     113.22999572753906       0 
Junction-42105     112.163330078125       0 
Junction-23127     111.91999816894531       0 
Junction-465848     124.17721557617188       22.729369088330085 
Junction-54464     117.06999969482422       0 
Junction-10627     112.70333862304688       0.9688115262693282 
Junction-10143     114.38249206542969       1.8736720954452584 
Junction-48998     118.41999816894531       2.059798460360616 
Junction-60376     128.1999969482422       1.1539832812723014 
Junction-10820     107.77999877929688       0 
Junction-23688     94.47000122070312       2.3833720149369944 
Junction-11452     78.59500122070312       0.04919123649597168 
Junction-11425     86.98500061035156       0 
Junction-10264     103.4000015258789       0 
Junction-475187     93.3634262084961       0 
Junction-49160     106.80999755859375       0.815138027221824 
Junction-49070     114.1300048828125       0 
Junction-11423     87.50199890136719       0.021336663514375687 
Junction-22990     110.05000305175781       10.152000166127685 
Junction-34183     84.3699951171875       0.03530779480934143 
Junction-11035     117.15332794189453       0.749278015033581 
Junction-11570     83.12000274658203       0.02186276949942112 
Junction-469571     113.06999969482422       0 
Junction-49178     97.82657623291016       0 
Junction-32863     122.46666717529297       4.201683489390845 
Junction-23449     113.38999938964844       0 
Junction-54522     108.6533432006836       1.4737391374838011 
Junction-475030     125.9333267211914       0 
Junction-23812     88.92500305175781       0.024756373837590218 
Junction-42106     106.8133316040039       0 
Junction-10617     102.21749877929688       0 
Junction-9050     113.20999908447266       2.0378449033246357 
Junction-23142     114.19999694824219       0 
Junction-22675     108.37332916259766       0 
Junction-33064     110.79666900634766       0 
Junction-41806     120.08999633789062       1.3553818398515314 
Junction-42188     107.2249984741211       0.9201323510149911 
Junction-473947     109.3699951171875       0 
Junction-476726     103.99750518798828       0 
Junction-11320     92.13499450683594       0 
Junction-473831     110.66999816894531       0 
Junction-34014     81.48333740234375       18.816898962217124 
Junction-48995     113.08499908447266       0.839954919805185 
Junction-57910     106.67500305175781       1.5262362581979037 
Junction-471020     112.3699951171875       0.711098066246155 
Junction-473832     111.3699951171875       0 
Junction-33744     102.61000061035156       2.100841909425347 
Junction-49249     109.01666259765625       2.9617956116242032 
Junction-54514     84.12333679199219       0 
Junction-33766     117.04000091552734       0 
Junction-464302     94.52999877929688       0 
Junction-33885     106.54666900634766       0 
Junction-42196     123.48666381835938       0 
Junction-23682     94.49250030517578       1.6684558385011496 
Junction-54374     109.48600769042969       0 
Junction-33475     114.94000244140625       0 
Junction-42614     94.2300033569336       2.024482011850495 
Junction-60429     111.44249725341797       0 
Junction-23598     103.09500122070312       0 
Junction-22379     126.16999816894531       1.0346716208225335 
Junction-473877     104.54000091552734       0 
Junction-41940     101.9666748046875       2.0378246415439243 
Junction-34093     82.3499984741211       0.052581723779439926 
Junction-60431     111.79666900634766       0 
Junction-476583     105.98333740234375       0 
Junction-54229     107.97000122070312       0 
Junction-58075     123.56999969482422       1.1845271744102723 
Junction-41795     111.16000366210938       21.0007802381953 
Junction-464378     93.55999755859375       0.6586011102619771 
Junction-41169     111.80999755859375       1.1530290831847279 
Junction-10130     102.55500030517578       0 
Junction-23427     93.0675048828125       3.177510765575374 
Junction-42535     84.7550048828125       0 
Junction-476804     104.0479965209961       0 
Junction-23813     89.69000244140625       0 
Junction-54512     95.75749969482422       0 
Junction-473821     105.08999633789062       0 
Junction-11349     84.55500030517578       0 
Junction-11450     78.46666717529297       0 
Junction-476118     108.71749877929688       0 
Junction-54459     109.29499816894531       1.2685228805396926 
Junction-42180     101.74333953857422       2.529409540700006 
Junction-60221     118.4000015258789       3.525901048005189 
Junction-54042     96.65464782714844       0 
Junction-23804     86.98999786376953       0 
Junction-11201     104.6066665649414       3.3063677838643284 
Junction-33765     117.12000274658203       2.0416633429741746 
Junction-33375     127.0199966430664       0.08598966896533966 
Junction-61114     132.5       0 
Junction-473824     104.39500427246094       0 
Junction-54034     131.44000244140625       0 
Junction-11579     75.89666748046875       0.05407235771417618 
Junction-42309     102.19999694824219       1.0623520960481616 
Junction-54379     107.4324951171875       0 
Junction-60613     97.36666870117188       1.254205214423243 
Junction-473822     104.40499877929688       0 
Junction-60222     118.50499725341797       5.654423185561278 
Junction-32859     129.23500061035156       2.1743378125331208 
Junction-49161     105.3566665649414       0.8809982041399916 
Junction-48610     128.07000732421875       0 
Junction-22382     111.94666290283203       0 
Junction-49380     94.5       0 
Junction-48262     111.8066635131836       0 
Junction-57934     128.0833282470703       2.0273456768577245 
Junction-33292     133.39999389648438       0.09078311920166016 
Junction-34001     102.66999816894531       1.0413532312895284 
Junction-10277     103.30000305175781       0 
Junction-22908     132.7200164794922       0.03200499713420868 
Junction-11196     110.46749877929688       0 
Junction-41624     113.98500061035156       1.0413532312895284 
Junction-32329     105.19000244140625       1.3133841103342645 
Junction-48809     98.90332794189453       1.9624401098519417 
Junction-33374     123.70999908447266       0 
Junction-474010     104.95249938964844       0 
Junction-465060     93.91500091552734       0.02303190715610981 
Junction-10305     129.7949981689453       0.03691534325480461 
Junction-42194     132.4066619873047       0 
Junction-41528     104.53500366210938       1.379244287252432 
Junction-54188     125.5999984741211       1.0728512401501105 
Junction-23132     112.3699951171875       0 
Junction-10487     110.14749908447266       8.228693956055855 
Junction-33750     90.12750244140625       0 
Junction-48735     104.01499938964844       2.2440156054512044 
Junction-473823     103.91000366210938       0 
Junction-33778     110.58499908447266       0 
Junction-42333     114.913330078125       0 
Junction-49247     97.55999755859375       1.4460584151632863 
Junction-58241     103.43499755859375       3.3378661221847596 
Junction-466551     112.73999786376953       0 
Junction-11335     97.2550048828125       0 
Junction-9857     125.83000183105469       0 
Junction-23801     81.44000244140625       0 
Junction-475535     107.5875015258789       0 
Junction-11332     99.0199966430664       1.00317320013714 
Junction-10137     101.55001068115234       0 
Junction-33068     109.2550048828125       1.578733378912006 
Junction-23690     103.04000091552734       21.31767317068423 
Junction-33206     111.23250579833984       0 
Junction-42317     90.07999420166016       0 
Junction-33580     99.21749877929688       3.7387538547885257 
Junction-33748     91.97667694091797       0 
Junction-23589     105.86500549316406       1.6379119453631787 
Junction-42177     109.25667572021484       0 
Junction-23276     113.8800048828125       0.8886341774244844 
Junction-23816     88.83000183105469       0.037441451102495193 
Junction-472538     87.94999694824219       0 
Junction-23118     114.1685562133789       17.328842158616872 
Junction-48810     103.4800033569336       0 
Junction-34011     93.30999755859375       0 
Junction-10397     111.20249938964844       0 
Junction-49323     87.7199935913086       0 
Junction-33367     109.40000915527344       10.692244472947165 
Junction-22520     121.51000213623047       5.29171589593471 
Junction-32858     129.2966766357422       0 
Junction-23260     93.5       1.557734596518335 
Junction-9988     104.8499984741211       1.2513421259707491 
Junction-54572     98.27666473388672       0 
Junction-41318     111.8919906616211       0 
Junction-23259     93.84000396728516       3.4180434710296037 
Junction-54469     109.97999572753906       27.213581200663256 
Junction-477158     108.1300048828125       0 
Junction-42625     83.70333099365234       0 
Junction-11344     83.3219985961914       0 
Junction-11314     96.1259994506836       1.4842383639507124 
Junction-10821     107.09333038330078       0 
Junction-54466     116.1500015258789       0 
Junction-42193     114.85499572753906       0 
Junction-48263     111.90499877929688       1.5567801513358746 
Junction-33873     93.78333282470703       2.8463014848093895 
Junction-58028     114.5199966430664       1.8297649813732977 
Junction-471226     133.37271118164062       7.295199125391535 
Junction-473879     104.5633316040039       0 
Junction-22904     120.20999908447266       0 
Junction-476592     103.89999389648438       0 
Junction-33602     120.2366714477539       14.737390056998617 
Junction-57806     108.69499969482422       2.1180225816293285 
Junction-23244     107.9800033569336       0 
Junction-23245     104.66000366210938       0 
Junction-476589     104.3699951171875       0 
Junction-23815     89.15750122070312       0.04384244978427887 
Junction-41026     119.79500579833984       2.0626621253678454 
Junction-23266     115.46499633789062       1.66559217349392 
Junction-469325     98.07666015625       1.359199950041221 
Junction-41628     106.20999908447266       0 
Junction-22893     102.93000030517578       0.9363586604014745 
Junction-10289     112.29000091552734       2.1810190935402667 
Junction-48994     112.93000030517578       1.1845271744102723 
Junction-23808     89.21666717529297       0.046502236276865005 
Junction-9503     118.51000213623047       2.3623730678133987 
Junction-474074     106.7340087890625       0 
Junction-22995     112.87667083740234       0 
Junction-22380     126.25       1.4632395815570411 
Junction-23274     110.04422760009766       0.550743286191505 
Junction-23436     101.6866683959961       3.3340483414549187 
Junction-42610     80.54999542236328       0.047145258635282516 
Junction-57984     106.46499633789062       9.336861809446011 
Junction-54510     95.94749450683594       3.0305192888196757 
Junction-33743     102.44499969482422       1.097668297463396 
Junction-32123     122.28333282470703       1.526236422927828 
Junction-473952     111.84667205810547       0 
Junction-477200     108.45600891113281       0 
Junction-49250     105.23666381835938       1.8326289758403762 
Junction-33282     100.53667449951172       1.6626846903267778 
Junction-10281     102.33999633789062       0 
Junction-41948     123.13333892822266       0 
Junction-60407     124.36600494384766       2.776623691891306 
Junction-33368     109.43499755859375       8.745075486014587 
Junction-48737     106.26000213623047       0 
Junction-23587     97.7125015258789       0.6376022455033438 
Junction-11444     85.51000213623047       0.04214721918106079 
Junction-42342     113.18000030517578       0 
Junction-463202     88.75       0 
Junction-22246     128.86000061035156       0 
Junction-33057     103.12000274658203       2.9512960556974432 
Junction-10279     102.38333129882812       0 
Junction-42327     101.16999816894531       0 
Junction-11312     96.68000030517578       0.7979571902879182 
Junction-41951     136.9600067138672       0 
Junction-54574     95.26333618164062       0 
Junction-42319     90.95333099365234       0 
Junction-23255     96.19249725341797       2.6582662295291115 
Junction-9860     110.07499694824219       0 
Junction-48402     111.40332794189453       0 
Junction-23445     116.4749984741211       0 
Junction-49264     98.17666625976562       1.2160255950956658 
Junction-42539     81.45999908447266       0 
Junction-33283     99.7066650390625       0 
Junction-9502     120.33999633789062       0 
Junction-53571     122.99332427978516       0 
Junction-33202     105.87999725341797       1.9366686073561963 
Junction-48872     121.61334228515625       0 
Junction-471221     123.62000274658203       0 
Junction-11193     110.98999786376953       0 
Junction-473514     121.96500396728516       0 
Junction-62446     84.55266571044922       nan 
Junction-460581     113.72333526611328       nan 
Junction-49053     110.00333404541016       1.5854148246490762 
Junction-476247     104.0999984741211       0 
Junction-33062     108.4033432006836       0 
Junction-23279     114.9450912475586       0 
Junction-48808     99.50345611572266       1.8049485829797103 
Junction-48673     123.35499572753906       2.177200983350577 
Junction-23135     112.83000183105469       0 
Junction-41887     104.2699966430664       9.336861809446011 
Junction-23695     94.84333038330078       0.9716751089115955 
Junction-23129     112.1199951171875       1.3725626767854373 
Junction-32320     115.08999633789062       1.406924350653249 
Junction-23694     96.00499725341797       1.0699878222377677 
Junction-23256     96.38999938964844       0 
Junction-475816     94.75666046142578       1.518600367278373 
Junction-33880     96.55500030517578       3.2223723248297946 
Junction-49260     105.41000366210938       2.981839948835414 
Junction-61033     100.72000122070312       0 
Junction-477552     79.85499572753906       0 
Junction-477198     108.6300048828125       0 
Junction-21979     111.42250061035156       0 
Junction-23810     90.08000183105469       0 
Junction-452728     108.1300048828125       nan 
Junction-23685     80.5999984741211       0.05322474613785744 
Junction-49067     113.83000183105469       1.477556918213642 
Junction-468921     122.3566665649414       1.0241720648957735 
Junction-33218     125.21499633789062       1.644593391100249 
Junction-465847     125.11499786376953       0 
Junction-48804     104.0999984741211       0.23385117735219696 
Junction-469128     121.72332763671875       1.163528309651639 
Junction-11009     104.62999725341797       1.7457696870686885 
Junction-11012     91.66666412353516       0.5927409745262907 
Junction-23441     117.08999633789062       0 
Junction-22247     128.5050048828125       0 
Junction-472169     87.8499984741211       0 
Junction-32125     118.76666259765625       0.7626408241427595 
Junction-48988     102.29000091552734       1.3382009205526633 
Junction-49259     106.94999694824219       1.4842383639507124 
Junction-472491     111.85749816894531       0 
Junction-54507     98.44332885742188       0 
Junction-473820     105.04499816894531       0 
Junction-42442     104.07000732421875       1.992983673530064 
Junction-10618     102.59500122070312       1.2923849984807445 
Junction-10613     114.16999816894531       0 
Junction-49054     104.2633285522461       0.606103742452988 
Junction-41705     119.78500366210938       6.337840858946767 
Junction-49253     111.15999603271484       0 
Junction-42023     123.29801177978516       0 
Junction-42534     92.72999572753906       0.112441286444664 
Junction-48608     130.97999572753906       0 
Junction-472172     87.83499908447266       0 
Junction-32762     119.61000061035156       1.1215305801343722 
Junction-58057     111.33999633789062       2.031163787047414 
Junction-23833     78.99250030517578       0 
Junction-57811     104.44666290283203       6.2958432941594245 
Junction-469491     118.6866683959961       3.243371436683315 
Junction-22798     114.4366683959961       0 
Junction-23591     104.61000061035156       0 
Junction-10639     115.86000061035156       1.5119189215413027 
Junction-9504     116.66000366210938       3.3197303458786203 
Junction-33071     111.5040054321289       1.7075900677411116 
Junction-60348     124.25499725341797       2.4807303654456687 
Junction-474020     110.54499816894531       0 
Junction-21743     113.37999725341797       0 
Junction-48822     125.39500427246094       1.3448822839247714 
Junction-10393     120.22999572753906       6.0619926933619634 
Junction-54441     107.42333984375       0.6691003367288882 
Junction-60614     96.26666259765625       0.07713349163532257 
Junction-34186     84.7733383178711       0 
Junction-11186     89.5999984741211       0 
Junction-53570     123.23500061035156       0.9964920014949564 
Junction-462494     94.51249694824219       0 
Junction-49322     87.59999084472656       0 
Junction-9866     113.34500122070312       0 
Junction-10614     114.21499633789062       0 
Junction-466127     115.83499908447266       0 
Junction-22680     102.44000244140625       0 
Junction-9854     128.34999084472656       1.1396660269806627 
Junction-49072     117.23500061035156       0 
Junction-11327     94.66500091552734       0 
Junction-23592     103.73999786376953       1.7104535680184165 
Junction-23262     105.45500183105469       0 
Junction-54447     100.11500549316406       3.515402150998127 
Junction-33291     133.3800048828125       0 
Junction-33212     117.90499877929688       1.093850187273706 
Junction-49394     79.7249984741211       0 
Junction-61031     95.5966567993164       0 
Junction-460476     106.5780029296875       0 
Junction-465496     113.0999984741211       4.222682601244365 
Junction-58354     80.88500213623047       0.023470329120755196 
Junction-473886     111.47000122070312       0 
Junction-54573     97.63333129882812       2.003483229456824 
Junction-60496     118.3933334350586       1.7629508534624434 
Junction-10791     103.7066650390625       0 
Junction-476668     106.45333099365234       0 
Junction-58191     112.77999877929688       0 
Junction-23700     98.6500015258789       1.8288110303806109 
Junction-467698     93.31999969482422       0 
Junction-469242     85.2449951171875       0.04086117073893547 
Junction-33741     107.97750091552734       1.118667079857067 
Junction-33209     125.459716796875       1.3553818398515314 
Junction-49168     93.11000061035156       1.3515638120268039 
Junction-22913     137.9499969482422       0 
Junction-62465     114.19999694824219       nan 
Junction-464891     88.25       4.243680724718339 
Junction-23696     99.13999938964844       3.420907136036833 
Junction-54452     91.2266616821289       1.038489648647261 
Junction-462909     111.19000244140625       0 
Junction-32763     105.9000015258789       2.5952697176181734 
Junction-49166     93.0       0 
Junction-58022     103.83749389648438       0.6271026072116215 
Junction-33756     91.05999755859375       0 
Junction-54314     111.1199951171875       13.19015567532674 
Junction-60349     117.70000457763672       0.9058150143583903 
Junction-471900     86.9800033569336       0 
Junction-60582     97.32333374023438       1.3591997853112967 
Junction-22809     125.73666381835938       1.8746265406277185 
Junction-476725     103.9320068359375       0 
Junction-23434     103.86000061035156       0 
Junction-10280     102.41500091552734       1.1492109729950382 
Junction-10139     102.51000213623047       4.393536854860813 
Junction-33877     87.26000213623047       0 
Junction-60497     113.30999755859375       6.368385081544586 
Junction-9660     129.3300018310547       0.6862812148452753 
Junction-33376     127.0580062866211       0 
Junction-22682     114.61333465576172       0.815138027221824 
Junction-23439     114.32999420166016       1.0623520960481616 
Junction-469379     105.63410186767578       2.0139829501135087 
Junction-32322     115.26408386230469       3.5707626072596095 
Junction-10270     101.64500427246094       0 
Junction-11181     92.28665924072266       0.7979571902879182 
Junction-23433     99.73999786376953       0 
Junction-41804     108.42500305175781       0 
Junction-49163     102.30999755859375       3.0553355224833387 
Junction-33213     118.75667572021484       0 
Junction-49392     79.9949951171875       0 
Junction-60611     99.55000305175781       2.229698268794604 
Junction-454508     106.25       0 
Junction-23916     82.23500061035156       0 
Junction-11016     82.94625854492188       0.15032117068767548 
Junction-42024     127.2300033569336       0.048109788447618484 
Junction-48676     104.54000091552734       1.8956254877513141 
Junction-32760     126.20999908447266       0.9898103910279616 
Junction-477084     103.8933334350586       0 
Junction-58288     104.42250061035156       4.121506140546002 
Junction-10619     100.9766616821289       1.038489648647261 
Junction-477136     104.37999725341797       0 
Junction-470031     104.24606323242188       1.831674201198067 
Junction-10832     117.6574935913086       0 
Junction-476580     105.89250183105469       0 
Junction-11347     85.94499969482422       0.6900992014875217 
Junction-49378     80.08000183105469       0.02463945932686329 
Junction-23602     97.92250061035156       0 
Junction-22679     102.40332794189453       8.344187423950972 
Junction-48869     104.89500427246094       48.08455425836518 
Junction-9047     114.3800048828125       0.7072802855163143 
Junction-476666     104.2125015258789       0 
Junction-23120     110.92166900634766       0 
Junction-58243     98.16000366210938       3.9334705558058745 
Junction-54315     102.7074966430664       0 
Junction-22250     125.20999908447266       1.254205214423243 
Junction-33183     102.39500427246094       0 
Junction-11343     89.40166473388672       0.05611834675073624 
Junction-22897     105.21499633789062       0 
Junction-60446     102.4000015258789       0.9726295540940557 
Junction-49377     81.36666107177734       0.033086441457271576 
Junction-42677     85.09188842773438       0.10571876913309097 
Junction-10825     119.42666625976562       0 
Junction-62448     84.54112243652344       nan 
Junction-60612     97.29500579833984       3.911516669310045 
Junction-476251     104.53333282470703       0 
Junction-62485     84.36666870117188       nan 
Junction-34191     80.22000122070312       0.024317951872944832 
Junction-460584     115.80999755859375       0 
Junction-11011     93.28600311279297       0.6022857558107416 
Junction-53914     118.94500732421875       1.6379117806332542 
Junction-468903     111.30999755859375       0 
Junction-23595     104.39250183105469       2.0941602989583523 
Junction-62469     101.48999786376953       nan 
Junction-468750     106.0566635131836       0 
Junction-10507     127.23500061035156       0 
Junction-23448     114.04000091552734       0.776958078434398 
Junction-49439     79.0050048828125       0.02721155434846878 
Junction-54373     108.375       0 
Junction-57982     110.45999908447266       0 
Junction-22671     104.20999908447266       2.160020146416671 
Junction-41627     121.52999877929688       5.312714678328382 
Junction-49434     84.14666748046875       0 
Junction-33465     109.72750091552734       0 
Junction-22911     124.7449951171875       0.937313187948897 
Junction-58025     102.41500091552734       0 
Junction-23273     108.66999816894531       1.6407756103704083 
Junction-58111     114.17500305175781       0 
Junction-53843     110.61800384521484       0.8361368919804575 
Junction-54518     77.52999877929688       0 
Junction-22899     118.6657485961914       23.390837487657627 
Junction-10124     109.3566665649414       0 
Junction-474036     127.37249755859375       0 
Junction-21748     110.12332916259766       2.6897645678495428 
Junction-41889     105.25999450683594       1.678955064968061 
Junction-10128     102.00249481201172       0 
Junction-48993     113.6199951171875       0.7807761886240878 
Junction-466028     104.31500244140625       0 
Junction-23697     98.8699951171875       0.8294553638784249 
Junction-10290     111.55999755859375       0 
Junction-33584     100.63333129882812       3.6614395120312135 
Junction-49263     104.14500427246094       2.349010176339258 
Junction-466030     112.85999298095703       nan 
Junction-33195     104.06999969482422       0 
Junction-21330     122.83000183105469       2.6659022851785665 
Junction-32517     111.17666625976562       0 
Junction-33184     104.77999877929688       0.6900992014875217 
Junction-34009     96.99250030517578       0 
Junction-473874     105.32249450683594       0 
Junction-48405     107.31999969482422       1.2685228805396926 
Junction-49172     100.25333404541016       0 
Junction-48679     109.45500183105469       0 
Junction-61985     103.0050048828125       0 
Junction-54610     87.5999984741211       0 
Junction-475536     106.72000122070312       0 
Junction-42181     93.85800170898438       2.4148701885275012 
Junction-32761     120.17000579833984       1.3620629561287527 
Junction-54651     80.18000030517578       0 
Junction-22901     111.25       0.7731403800695196 
Junction-58183     111.60000610351562       0.5020640285722057 
Junction-469133     113.59667205810547       4.818286375945783 
Junction-462456     113.23999786376953       0 
Junction-54509     96.62332916259766       0 
Junction-22375     127.09999084472656       0 
Junction-33871     98.32499694824219       0 
Junction-22906     123.78599548339844       0.606103742452988 
Junction-33190     110.8499984741211       0.6719639193711555 
Junction-22997     119.3499984741211       0.8084565814847537 
Junction-58151     118.67999267578125       2.4139159080749657 
Junction-41802     105.12999725341797       0 
Junction-10489     111.32666778564453       65.7512878024048 
Junction-468950     113.23999786376953       1.5090552565340731 
Junction-58150     119.2066650390625       0 
Junction-10302     131.53500366210938       0.032443419098854065 
Junction-10634     112.5       0 
Junction-10265     103.83333587646484       1.1005317153757388 
Junction-54269     109.30999755859375       0 
Junction-23437     101.7933349609375       0 
Junction-48821     125.64666748046875       0.8886341774244844 
Junction-11334     97.52999877929688       0 
Junction-58349     90.7699966430664       0 
Junction-10625     110.04999542236328       0.9898103910279616 
Junction-473881     104.54666900634766       0 
Junction-60558     119.35333251953125       10.217859848856078 
Junction-476653     104.90104675292969       0 
Junction-22383     111.06999969482422       1.5014192008846183 
Junction-23703     89.15666961669922       0 
Junction-33290     122.19999694824219       0.9583120527075304 
Junction-54146     108.87999725341797       0 
Junction-48264     112.9749984741211       1.299066526582777 
Junction-42103     108.55500030517578       5.9436349015399195 
Junction-469693     87.42333221435547       1.264704770350003 
Junction-23575     92.64500427246094       0 
Junction-11007     108.47000122070312       6.807452927665703 
Junction-33872     96.85599517822266       0 
Junction-476803     103.17333221435547       0 
Junction-11185     91.586669921875       0.5431072305420501 
Junction-473941     104.27999877929688       0 
Junction-11428     83.75999450683594       0 
Junction-41793     108.16250610351562       0 
Junction-470702     127.26000213623047       0 
Junction-42432     97.58000183105469       0 
Junction-48739     109.45249938964844       0 
Junction-474073     107.6500015258789       0 
Junction-41429     122.36499786376953       2.0932056890459676 
Junction-11435     86.79000091552734       0 
Junction-58320     81.0250015258789       0 
Junction-454645     103.84667205810547       0 
Junction-42431     97.6866683959961       0 
Junction-21974     111.36666870117188       2.8109853657591177 
Junction-49395     79.33999633789062       0 
Junction-471421     104.63750457763672       2.459731418322073 
Junction-473945     104.74000549316406       0 
Junction-474892     106.86249542236328       0 
Junction-33208     119.69999694824219       1.3343828927279358 
Junction-58027     102.56999969482422       3.58221660836883 
Junction-460578     113.83250427246094       0 
Junction-463968     93.83999633789062       1.672273783960915 
Junction-58236     103.88999938964844       1.8297649813732977 
Junction-473816     105.8335952758789       0 
Junction-11572     82.97000122070312       0.03744146227836609 
Junction-9983     120.97500610351562       0 
Junction-10624     110.74333953857422       0.6967807295895542 
Junction-60447     104.42500305175781       10.507071564834721 
Junction-10810     97.55999755859375       0 
Junction-49320     86.32333374023438       0.04331634193658829 
Junction-9285     112.01000213623047       0.5612425538408973 
Junction-60460     102.48499298095703       0 
Junction-33586     100.32666015625       2.14952091994976 
Junction-10131     102.54499816894531       1.586369434561461 
Junction-61032     96.63666534423828       0 
Junction-465676     132.97000122070312       0 
Junction-22799     105.58000183105469       0 
Junction-462113     98.45999908447266       1.66559217349392 
Junction-34393     78.51000213623047       0.0874803215265274 
Junction-33197     102.6533432006836       0 
Junction-42441     107.46499633789062       0 
Junction-476063     104.91268920898438       0 
Junction-10493     112.3566665649414       0 
Junction-460470     111.663330078125       0 
Junction-23692     101.61334228515625       0.8609538669287806 
Junction-465711     113.21332550048828       0 
Junction-53911     113.08000183105469       1.686591120617516 
Junction-62468     101.60785675048828       nan 
Junction-473826     104.56999969482422       0 
Junction-22523     122.85499572753906       0 
Junction-58240     85.87332916259766       0 
Junction-11042     114.0       3.901972217485443 
Junction-473833     110.70500183105469       0 
Junction-10304     121.32666015625       0 
Junction-58319     86.30000305175781       11.044451547727274 
Junction-476210     106.9000015258789       0 
Junction-477550     79.95500183105469       0 
Junction-33196     102.63999938964844       25.338003179991716 
Junction-10828     119.48500061035156       0 
Junction-10795     103.63666534423828       0 
Junction-33210     125.37332916259766       0.7626408241427595 
Junction-54607     96.11333465576172       1.522418148008214 
Junction-473891     110.70999908447266       0 
Junction-34101     85.79400634765625       0 
Junction-473946     110.55500030517578       0 
Junction-33372     112.01000213623047       0 
Junction-48611     128.072509765625       1.469921192024036 
Junction-477135     104.5233383178711       0 
Junction-42622     88.0       0 
Junction-9287     109.24500274658203       6.239528063255632 
Junction-477251     107.53500366210938       0 
Junction-42445     102.80500030517578       0 
Junction-461030     80.07249450683594       0.06251934170722961 
Junction-470030     104.0199966430664       0 
Junction-60634     94.18000030517578       2.717444795980284 
Junction-23269     106.91749572753906       1.1912086201473426 
Junction-471897     87.05000305175781       0 
Junction-33763     117.07499694824219       0 
Junction-42329     100.22332763671875       0 
Junction-33894     93.8499984741211       0 
Junction-23452     110.3800048828125       18.67754271746126 
Junction-476655     103.94000244140625       0 
Junction-41803     108.73500061035156       1.0766693503398004 
Junction-9859     106.76000213623047       1.9089882144955304 
Junction-54516     84.7266616821289       0 
Junction-474085     110.1100082397461       0 
Junction-33891     102.06999969482422       0.6652823089041607 
Junction-473876     104.6433334350586       0 
Junction-22245     124.02750396728516       3.6194419472438715 
Junction-48877     125.06400299072266       1.933805107078891 
Junction-477252     107.68000030517578       0 
Junction-22788     103.34199523925781       0.7034622576915868 
Junction-32871     121.65499877929688       1.1148489696673773 
Junction-33191     110.93000030517578       0.9096330421831178 
Junction-472532     113.05999755859375       0 
Junction-469433     129.3699951171875       4.205501599580535 
Junction-469245     110.77666473388672       5.048319525473252 
Junction-54575     92.2300033569336       0.04375477507710457 
Junction-42025     119.56999969482422       0 
Junction-11197     107.34334564208984       3.0830160800739295 
Junction-473943     104.2266616821289       0 
Junction-22113     122.163330078125       0 
Junction-22377     127.84333038330078       0 
Junction-41949     125.93000030517578       1.90230676875846 
Junction-477199     108.23999786376953       0 
Junction-58076     135.5800018310547       0.0314788818359375 
Junction-33603     117.72000122070312       6.215665945314581 
Junction-474076     104.3600082397461       0 
Junction-476254     105.77999877929688       0 
Junction-54035     128.28500366210938       0 
Junction-468877     106.31749725341797       0 
Junction-48675     107.70999908447266       0 
Junction-42623     88.86666107177734       0.04492390528321266 
Junction-23702     97.36666870117188       0 
Junction-22802     105.71499633789062       0 
Junction-22668     103.7300033569336       0.937313187948897 
Junction-54523     111.05499267578125       0 
Junction-54615     79.95500183105469       0.05623525381088257 
Junction-476728     102.98500061035156       0 
Junction-469106     113.20750427246094       0 
Junction-32323     116.72000122070312       5.125633538770715 
Junction-33747     91.43000030517578       0 
Junction-60517     114.20526123046875       1.4699210272941114 
Junction-23578     82.81999969482422       0 
Junction-54376     102.08999633789062       0 
Junction-49179     112.84749603271484       8.174287615516983 
Junction-9279     110.2699966430664       0 
Junction-48399     111.89249420166016       0.8571357567390909 
Junction-476209     107.72332763671875       0 
Junction-476116     109.04499816894531       0 
Junction-23271     107.10999298095703       1.8154479741765457 
Junction-34005     97.74000549316406       1.91280632468522 
Junction-54442     107.4840087890625       1.4317414079665345 
Junction-23832     79.16000366210938       0 
Junction-22672     104.04000091552734       0 
Junction-10816     115.69499969482422       0 
Junction-33886     107.57666015625       0 
Junction-48674     124.02749633789062       1.543417259861734 
Junction-33463     113.2249984741211       0 
Junction-54521     99.66999816894531       2.5952697176181734 
Junction-42182     94.91666412353516       0 
Junction-33182     102.50999450683594       1.1883453669649244 
Junction-11013     92.58333587646484       2.2335163789842936 
Junction-11037     116.83499908447266       0 
Junction-49243     97.14199829101562       0 
Junction-11019     85.75499725341797       0 
Junction-54461     105.49666595458984       0 
Junction-11199     104.81999969482422       0 
Junction-42322     89.61000061035156       0 
Junction-33193     109.84000396728516       1.3897433489894186 
Junction-9500     120.7699966430664       0 
Junction-33890     101.88999938964844       0.9898103910279616 
Junction-10119     103.80999755859375       0 
Junction-11341     90.98666381835938       0.04267332702875137 
Junction-10391     119.67500305175781       0 
Junction-33058     103.44000244140625       0 
Junction-11565     84.12666320800781       0.026977727189660072 
Junction-464465     95.17500305175781       0 
Junction-33473     118.41666412353516       1.0699878222377677 
Junction-22248     125.97999572753906       1.379244287252432 
Junction-23417     108.97000122070312       0 
Junction-58193     120.32999420166016       0 
Junction-33596     115.80500030517578       2.160020146416671 
Junction-33192     110.44999694824219       0.8886341774244844 
Junction-49391     80.23333740234375       0 
Junction-53842     110.29000091552734       1.655092947027009 
Junction-23246     105.33999633789062       0.8609538669287806 
Junction-53913     119.60999298095703       1.174027865578399 
Junction-58149     111.36499786376953       1.6932727310845106 
Junction-54270     110.3166732788086       11.095994223258916 
Junction-10819     108.64666748046875       0 
Junction-54317     102.17000579833984       0 
Junction-48989     102.17333984375       3.2920504472077274 
Junction-54451     92.34500122070312       1.8708085951679532 
Junction-477253     106.80999755859375       0 
Junction-53845     105.17500305175781       0 
Junction-42189     116.5999984741211       0 
Junction-10284     104.57999420166016       0 
Junction-460473     115.74000549316406       0 
Junction-11329     97.125       0 
Junction-469493     89.0433349609375       0 
Junction-41519     124.6500015258789       0 
Junction-57805     111.30000305175781       1.3658809839534802 
Junction-23579     83.26667022705078       0 
Junction-57687     118.05999755859375       2.8711183773927504 
Junction-58182     104.25333404541016       0.49156447264544567 
Junction-42613     94.15249633789062       0 
Junction-54318     114.21666717529297       0 
Junction-10122     107.90249633789062       0 
Junction-42321     88.99666595458984       0.567924123125411 
Junction-11345     84.4800033569336       17.813725350255172 
Junction-22117     123.60333251953125       0 
Junction-54181     100.38999938964844       1.4422407991633701 
Junction-58244     116.8699951171875       0.815138027221824 
Junction-42533     101.3499984741211       0.9506763265179243 
Junction-32764     105.3375015258789       1.4078787958357093 
Junction-11313     95.91500091552734       0 
Junction-9861     121.82076263427734       1.3343828927279358 
Junction-62489     111.09667205810547       nan 
Junction-33279     103.56999969482422       0 
Junction-22670     104.15499877929688       0 
Junction-33770     110.84667205810547       0 
Junction-11330     97.2699966430664       0 
Junction-42328     101.61000061035156       0 
Junction-32870     121.70999908447266       0 
Junction-41703     124.22000122070312       1.125348690324062 
Junction-474018     110.6933364868164       0 
Junction-33215     123.90799713134766       1.0174908662535898 
Junction-49063     106.80999755859375       1.0556705679461291 
Junction-465441     110.38999938964844       35.71335537936965 
Junction-476581     105.88999938964844       0 
Junction-473878     105.39500427246094       0 
Junction-477509     126.54901885986328       10.696061594757309 
Junction-34002     102.9000015258789       0 
Junction-60581     93.46499633789062       0 
Junction-61319     111.05000305175781       0 
Junction-9284     112.1824951171875       0 
Junction-22800     105.80999755859375       0 
Junction-22907     124.90666961669922       1.3487002293845365 
Junction-58348     85.51000213623047       0.09420282393693924 
Junction-452105     93.9766616821289       0 
Junction-474077     103.74500274658203       0 
Junction-22796     102.75       2.0836607430315923 
Junction-23825     86.76666259765625       0 
Junction-41805     113.6500015258789       0 
Junction-23450     112.49198913574219       0 
Junction-23683     92.23999786376953       0 
Junction-42013     110.5999984741211       0 
Junction-11027     94.13999938964844       0 
Junction-48407     105.4766616821289       1.1043498255654285 
Junction-10267     103.45500183105469       0 
Junction-49061     93.01666259765625       0 
Junction-41706     106.25499725341797       0 
Junction-22988     114.25       0 
Junction-474007     104.47999572753906       0 
Junction-11034     114.197998046875       0 
Junction-11567     84.79499816894531       0 
Junction-62474     101.16666412353516       nan 
Junction-460468     114.25       0 
Junction-23596     103.41999816894531       0 
Junction-21976     111.24666595458984       0 
Junction-473825     104.41000366210938       0 
Junction-42624     82.55000305175781       0 
Junction-62487     103.27999877929688       nan 
Junction-41522     128.11000061035156       0 
Junction-10492     112.68499755859375       0 
Junction-49177     98.94000244140625       0 
Junction-33599     108.45000457763672       0 
Junction-10794     99.7266616821289       0 
Junction-33887     104.94499969482422       0 
Junction-42015     110.8800048828125       0 
Junction-49170     99.19000244140625       0 
Junction-472535     93.5999984741211       0.03703225404024124 
Junction-42184     113.05667114257812       0 
Junction-11323     100.89000701904297       1.6684558385011496 
Junction-22684     120.87379455566406       3.188010650961983 
Junction-54652     79.80333709716797       0.028380684554576874 
Junction-10793     99.83000183105469       1.689454620894821 
Junction-10288     111.8600082397461       0 
Junction-58074     109.2300033569336       1.2857036351086364 
Junction-469311     113.32000732421875       2.546590542363836 
Junction-460478     111.42333984375       11.085494996792004 
Junction-42331     102.22500610351562       2.7976224742849767 
Junction-470141     125.45000457763672       0 
Junction-9051     113.49000549316406       1.7037719575514216 
Junction-476896     104.06999969482422       0 
Junction-11005     105.15499877929688       0.9649936631745252 
Junction-10630     124.21332550048828       3.5297194876547278 
Junction-468957     76.2849349975586       0 
Junction-48677     109.4749984741211       4.717110574167116 
Junction-42021     112.00749969482422       4.655068013248865 
Junction-33884     106.69200134277344       0 
Junction-22991     109.7066650390625       0 
Junction-477250     107.80999755859375       0 
Junction-33207     119.32999420166016       1.2475240157810592 
Junction-42444     105.83999633789062       1.3620633679535639 
Junction-11434     92.5       0 
Junction-9280     110.97999572753906       0.9268138791170236 
Junction-57935     113.1533432006836       0 
Junction-476724     103.92000579833984       0 
Junction-54186     112.11000061035156       1.6856365107051312 
Junction-33592     105.23199462890625       0 
Junction-60513     105.14666748046875       0 
Junction-23422     103.60499572753906       0 
Junction-48987     103.663330078125       1.1663918922939063 
Junction-10808     97.56999969482422       0 
Junction-468904     111.34500122070312       0 
Junction-11205     100.18000030517578       1.219843540555431 
Junction-476060     108.82749938964844       0 
Junction-49381     86.7699966430664       0 
Junction-48741     110.01667022705078       18.813081181487284 
Junction-476213     106.85333251953125       0 
Junction-9667     125.0183334350586       1.469921192024036 
Junction-33893     97.29500579833984       3.0629717428627186 
Junction-57859     112.45500183105469       1.689454620894821 
Junction-54236     133.67999267578125       0.10390662401914597 
Junction-9865     113.83999633789062       0 
Junction-41885     105.07749938964844       0 
Junction-10827     117.22500610351562       0 
Junction-49244     95.52484893798828       3.713936962205165 
Junction-10268     103.0       0.7177798414430744 
Junction-54179     110.65499877929688       0 
Junction-23576     94.6300048828125       0 
Junction-42337     115.95999908447266       1.3687445665957476 
Junction-23814     89.42666625976562       0.014731069095432758 
Junction-451227     87.98388671875       0 
Junction-32860     127.51333618164062       0 
Junction-58353     88.20333862304688       0.0204890388995409 
Junction-41709     103.91000366210938       2.707900344155682 
Junction-473951     110.5374984741211       0 
Junction-469165     127.99749755859375       0 
Junction-476249     104.1300048828125       0 
Junction-48805     110.54000091552734       1.125348690324062 
Junction-477195     108.82749938964844       0 
Junction-49180     111.76000213623047       2.455913143402459 
Junction-476229     104.03499603271484       0 
Junction-23689     94.66499328613281       1.083350960806795 
Junction-474079     109.88999938964844       0 
Junction-11020     86.54000091552734       0 
Junction-473887     111.05999755859375       0 
Junction-33605     119.64500427246094       3.9850132313375166 
Junction-9668     104.68000030517578       0 
Junction-23588     97.79000091552734       1.163528309651639 
Junction-58287     107.55999755859375       1.6579562825743897 
Junction-10799     101.3800048828125       3.6614395120312135 
Junction-34185     85.19000244140625       0.05515380948781967 
Junction-477197     108.72999572753906       0 
Junction-61115     127.0433349609375       0 
Junction-476992     114.0025863647461       0 
Junction-32321     114.94000244140625       0.4562482712302114 
Junction-41950     132.82333374023438       0.11404884606599808 
Junction-476654     103.28500366210938       0 
Junction-473955     111.625       0 
Junction-11023     99.94999694824219       0 
Junction-477249     108.5433349609375       0 
Junction-34000     102.25       0.7005987574142817 
Junction-23131     112.79166412353516       1.4766028024910307 
Junction-58347     88.11000061035156       0.04790518805384636 
Junction-23430     98.41999816894531       4.672249014912695 
Junction-49066     116.86000061035156       17.72304877494342 
Junction-42326     109.82333374023438       0 
Junction-32325     110.25666046142578       0 
Junction-54448     93.58333587646484       1.543416930401885 
Junction-33589     106.89000701904297       0.7874576343611581 
Junction-10628     113.08999633789062       1.4670571975569575 
Junction-62466     111.00999450683594       nan 
Junction-476651     104.93000030517578       0 
Junction-22791     102.9766616821289       0 
Junction-33582     99.2699966430664       4.05182768870822 
Junction-32326     111.61666870117188       0 
Junction-23915     84.76667022705078       0 
Junction-41797     107.83000183105469       0 
Junction-473515     122.02749633789062       0 
Junction-48820     116.7300033569336       1.038489648647261 
Junction-54184     104.22000122070312       5.379529465158934 
Junction-62472     102.17500305175781       nan 
Junction-9288     111.19666290283203       1.5644157127955562 
Junction-11190     99.9800033569336       0 
Junction-10803     101.99332427978516       0 
Junction-48546     126.92000579833984       2.449231862395313 
Junction-476252     105.05000305175781       0 
Junction-57908     126.15499877929688       0.9926737265753423 
Junction-62456     113.98500061035156       nan 
Junction-22903     120.4949951171875       0 
Junction-452401     88.69999694824219       0 
Junction-49388     87.91500091552734       0.04150419682264328 
Junction-476224     107.9124984741211       0 
Junction-476227     107.43499755859375       0 
Junction-23116     113.55667114257812       0 
Junction-11204     101.3499984741211       0 
Junction-23423     93.66000366210938       1.8746265406277185 
Junction-34189     80.42500305175781       0 
Junction-470703     126.0875015258789       11.235350468014781 
Junction-42429     87.66500091552734       2.1180225816293285 
Junction-61984     103.01666259765625       0 
Junction-58148     102.2300033569336       6.156487049403559 
Junction-48549     124.86500549316406       1.0241720648957735 
Junction-48133     120.0       2.717444795980284 
Junction-33578     101.88999938964844       0 
Junction-62482     105.44000244140625       nan 
Junction-48815     111.6500015258789       1.3238832544362134 
Junction-11194     110.95999908447266       0 
Junction-42617     89.47332763671875       0.04223490133881569 
Junction-41883     102.11666107177734       1.644593720560098 
Junction-33751     90.00199890136719       1.5644160422554052 
Junction-33761     113.16666412353516       0.18803546119268377 
Junction-23443     117.32999420166016       4.765789584691529 
Junction-23254     95.45999908447266       0 
Junction-476667     106.81999969482422       0 
Junction-62488     104.06999969482422       nan 
Junction-42014     110.5       0 
Junction-57807     111.95999908447266       0 
Junction-23280     119.71749877929688       0 
Junction-10805     101.88749694824219       0 
Junction-62101     102.8499984741211       0 
Junction-10132     102.02999877929688       0 
Junction-474886     108.19000244140625       0 
Junction-11429     82.0566635131836       0 
Junction-58024     107.7750015258789       0 
Junction-9505     121.16999816894531       0.9544942719776897 
Junction-8758     121.0       0 
Junction-49325     95.69000244140625       2.3346928396826576 
Junction-473817     105.66999816894531       0 
Junction-472531     113.0199966430664       0 
Junction-473942     105.11000061035156       0 
Junction-477452     103.9333267211914       0 
Junction-58112     110.5633316040039       0 
Junction-11577     79.086669921875       0 
Junction-58021     104.1240005493164       7.530003841911607 
Junction-474471     124.58499908447266       0 
Junction-33369     109.9800033569336       0 
Junction-22673     103.16000366210938       0 
Junction-58192     123.2266616821289       3.6442588398272324 
Junction-23824     87.0050048828125       0.13067974150180817 
Junction-54141     108.1833267211914       11.221987576540641 
Junction-10811     96.70000457763672       1.5290995937452843 
Junction-33288     111.55999755859375       1.8039939730673256 
Junction-22803     105.73999786376953       1.3611088404061416 
Junction-473593     122.04000091552734       0 
Junction-477196     108.46500396728516       0 
Junction-58351     89.83999633789062       0 
Junction-33998     88.06999969482422       0 
Junction-58056     105.36000061035156       8.16283427332746 
Junction-23584     97.68000030517578       0 
Junction-11028     94.22000122070312       0 
Junction-42521     96.33999633789062       0.3760705929255186 
Junction-10125     109.8466567993164       0 
Junction-33775     112.61500549316406       0 
Junction-42323     84.1833267211914       0.09464124590158463 
Junction-42312     107.84500122070312       0 
Junction-41171     110.06500244140625       0 
Junction-9048     114.59500122070312       0.407569013610912 
Junction-10142     113.98999786376953       0 
Junction-54513     83.22333526611328       0 
Junction-23823     88.875       0 
Junction-476739     93.3634262084961       0 
Junction-48990     101.086669921875       0 
Junction-54578     84.15999603271484       0 
Junction-42621     85.1500015258789       0 
Junction-11025     100.73332977294922       0 
Junction-58184     103.07499694824219       1.5720522626347846 
Junction-22795     102.70999908447266       0 
Junction-464906     101.85999298095703       2.0731613518347567 
Junction-60324     104.71499633789062       0.7941391624631907 
Junction-9665     108.14000701904297       3.669075732410593 
Junction-11188     84.21500396728516       0 
Junction-58186     100.97000122070312       2.341374285419728 
Junction-469326     101.94000244140625       2.9579775014345135 
Junction-476898     103.92000579833984       0 
Junction-473875     105.1500015258789       0 
Junction-48740     109.5999984741211       0 
Junction-23264     105.38499450683594       6.232847276438259 
Junction-54273     123.41999816894531       0 
Junction-49239     95.99500274658203       1.4107422961130143 
Junction-469572     111.27000427246094       1.6474570561074786 
Junction-22896     109.96199798583984       0 
Junction-474016     109.19499969482422       0 
Junction-23440     114.44000244140625       1.4766028024910307 
Junction-49065     110.79499816894531       1.0003100293196838 
Junction-9867     121.41999816894531       0 
Junction-48747     113.15332794189453       2.079842797571827 
Junction-42437     106.68999481201172       0 
Junction-42430     88.47500610351562       0.9163143231902636 
Junction-49068     114.28999328613281       0 
Junction-474834     76.38999938964844       0 
Junction-10301     131.95001220703125       0.03349563479423523 
Junction-11022     100.16999816894531       1.083350960806795 
Junction-54182     102.32666778564453       0 
Junction-474080     110.41999816894531       0 
Junction-42316     87.9050064086914       0 
Junction-23574     93.16500091552734       1.4078787958357093 
Junction-452400     87.8457260131836       0 
Junction-22676     108.3466567993164       12.068624271542745 
Junction-48265     112.84249877929688       0.8084565814847537 
Junction-42017     113.96000671386719       0 
Junction-54235     122.73666381835938       0 
Junction-10633     112.48500061035156       2.316557392836367 
Junction-33181     103.88666534423828       0 
Junction-58238     91.48500061035156       0.8886341774244844 
Junction-474009     104.09333038330078       0 
Junction-42341     111.1199951171875       0 
Junction-33278     103.41999816894531       0 
Junction-9286     110.0566635131836       1.229388321839882 
Junction-473944     104.71499633789062       0 
Junction-465497     113.13500213623047       nan 
Junction-23424     93.53665924072266       0 
Junction-33757     92.30999755859375       0 
Junction-58245     114.43499755859375       3.358864904578431 
Junction-41879     102.5433349609375       0 
Junction-476897     104.0       0 
Junction-476005     109.38666534423828       0 
Junction-60289     115.19000244140625       1.933805107078891 
Junction-32520     111.375       1.5959142158459119 
Junction-10283     105.27499389648438       0 
Junction-49438     77.625       0 
Junction-60632     80.87000274658203       0 
Junction-54192     124.96499633789062       0.6929627017648267 
Junction-23121     110.9000015258789       2.0979782444181176 
Junction-49242     95.77999877929688       4.51475699385069 
Junction-49321     95.61500549316406       0 
Junction-33289     121.41000366210938       1.111031353667461 
Junction-22912     138.02333068847656       0 
Junction-23585     97.47599792480469       0 
Junction-60638     78.76000213623047       0 
Junction-54147     108.72999572753906       0.8218193905939322 
Junction-10266     103.52000427246094       0 
Junction-473883     104.375       0 
Junction-49175     102.7699966430664       0 
Junction-454509     106.46332550048828       0 
Junction-10297     114.94000244140625       0 
Junction-460577     114.39500427246094       0 
Junction-452726     108.9197006225586       nan 
Junction-34012     84.33999633789062       0 
Junction-58189     106.49333953857422       0 
Junction-41529     104.32333374023438       2.8568010407361495 
Junction-33575     112.16999816894531       2.981839948835414 
Junction-477012     103.96499633789062       0 
Junction-41791     108.1050033569336       0 
Junction-22909     132.47666931152344       0.04726216569542885 
Junction-11189     99.97000122070312       0 
Junction-54037     121.71499633789062       0.9411312157736245 
Junction-476211     106.80999755859375       0 
Junction-23000     127.27999877929688       0.2734600305557251 
Junction-23136     112.61000061035156       2.609587383734623 
Junction-33474     108.05000305175781       0 
Junction-42531     103.30999755859375       0 
Junction-10829     120.26000213623047       2.5819068261440328 
Junction-476212     106.90662384033203       0 
Junction-474008     104.0875015258789       0 
Junction-471080     127.47061920166016       0 
Junction-49240     88.83000183105469       0.8886341774244844 
Junction-473882     104.61333465576172       0 
Junction-9855     128.6750030517578       0 
Junction-9046     114.5999984741211       2.0760250168419865 
Junction-22892     103.00333404541016       1.8116300287167806 
Junction-476993     113.85000610351562       0 
Junction-42626     80.9366683959961       0 
Junction-32869     121.5999984741211       0 
Junction-33772     112.23500061035156       0 
Junction-11422     87.413330078125       0 
Junction-11203     103.02500915527344       0 
Junction-10822     106.90499877929688       1.514782092358759 
Junction-61036     84.12999725341797       0 
Junction-48875     120.95999908447266       1.3448822839247714 
Junction-42330     102.18499755859375       0 
Junction-33188     101.6866683959961       0 
Junction-473819     106.05000305175781       0 
Junction-21513     119.22000122070312       2.905480380720411 
Junction-10138     103.71499633789062       0 
Junction-10499     123.84500122070312       0 
Junction-54043     96.40670013427734       0 
Junction-474021     110.5966567993164       0 
Junction-476614     106.58999633789062       0 
Junction-33204     111.89000701904297       1.3897433489894186 
Junction-62460     117.18000030517578       nan 
Junction-23567     102.9800033569336       1.9023069334883844 
Junction-34095     87.80538940429688       0 
Junction-10506     126.98250579833984       0 
Junction-49064     115.1930923461914       0 
Junction-49319     84.87999725341797       0.0157832819968462 
Junction-23251     101.6500015258789       0 
Junction-42435     97.55333709716797       0 
Junction-54316     102.15499877929688       0 
Junction-62449     84.52528381347656       nan 
Junction-476059     109.35249328613281       0 
Junction-476245     104.1675033569336       0 
Junction-62470     113.1833267211914       nan 
Junction-49176     102.76666259765625       3.0906519709934597 
Junction-60583     108.86500549316406       1.4250599622294642 
Junction-477137     105.19999694824219       0 
Junction-54648     80.05000305175781       0 
Junction-60637     85.4739990234375       0.043433260172605515 
Junction-10404     134.15667724609375       0.03220958635210991 
Junction-33759     112.05999755859375       1.4002429049161786 
Junction-54525     92.30001068115234       0 
Junction-42522     96.98999786376953       0 
Junction-473839     110.77667236328125       0 
Junction-469470     107.43000030517578       0 
Junction-22114     122.26667022705078       0 
Junction-10282     102.81999969482422       7.953799906193663 
Junction-33889     104.7266616821289       0.686281461940162 
Junction-11442     85.62999725341797       0 
Junction-23270     107.11250305175781       0 
Junction-11044     113.0999984741211       2.0521625694410854 
Junction-11039     116.12332916259766       0 
Junction-22794     103.67333221435547       0 
Junction-54454     90.19200134277344       0 
Junction-49237     97.19999694824219       1.010809255786595 
Junction-49257     110.80999755859375       7.483234380671813 
Junction-23420     104.33333587646484       3.612760172046952 
Junction-11021     99.72000122070312       0 
Junction-476115     109.37332916259766       0 
Junction-33072     120.32499694824219       2.12565814308901 
Junction-10140     109.0199966430664       2.476912255255979 
Junction-60478     114.19499969482422       2.683083286842397 
Junction-23421     104.77999877929688       0 
Junction-469314     122.10499572753906       0 
Junction-57743     107.27999877929688       0 
Junction-42627     79.06999969482422       0 
Junction-61301     84.5146484375       0 
Junction-465667     132.89248657226562       0 
Junction-452729     108.57676696777344       nan 
Junction-10830     121.24333953857422       5.48738704213452 
Junction-54090     109.31999969482422       2.0760246873821373 
Junction-473889     111.5999984741211       0 
Junction-33287     111.2449951171875       0.5784233495923221 
Junction-10812     96.7933349609375       2.4912299213724287 
Junction-477132     104.6399917602539       0 
Junction-473827     104.61333465576172       0 
Junction-42439     103.51200103759766       0 
Junction-42433     99.8499984741211       14.799431300077472 
Junction-60555     90.62000274658203       1.4985557006073131 
Junction-54039     108.92499542236328       1.2713863808169978 
Junction-460469     114.33333587646484       7.510914938262403 
Junction-23263     106.41000366210938       0.9898103910279616 
Junction-476548     113.4766616821289       5.390028362165996 
Junction-10263     103.97332763671875       0.867634983206002 
Junction-62490     108.0050048828125       nan 
Junction-33892     97.57666015625       1.4107422961130143 
Junction-48873     121.63333129882812       55.4542020847477 
Junction-473948     111.90750122070312       0 
Junction-22905     120.72500610351562       0 
Junction-23586     97.7300033569336       0 
Junction-49059     95.33000183105469       0.9506763265179243 
Junction-33063     108.12000274658203       0 
Junction-10123     107.99000549316406       11.116993994032134 
Junction-474075     106.9324951171875       0 
Junction-10635     112.21250915527344       0.7702768797922145 
Junction-33758     112.25666046142578       0.9926738913052667 
Junction-41796     101.45000457763672       0 
Junction-10269     103.05333709716797       0 
Junction-11040     116.06999969482422       7.615909179690608 
Junction-10306     129.7449951171875       0.04524541273713112 
Junction-476582     106.0       0 
Junction-41430     121.8800048828125       2.5952697176181734 
Junction-54313     109.9000015258789       0 
Junction-23831     79.27666473388672       0.11691322922706604 
Junction-34016     81.4000015258789       0 
Junction-474081     109.76499938964844       0 
Junction-54228     107.01000213623047       36.30896080137031 
Junction-58352     84.33499908447266       0 
Junction-22669     103.6520004272461       0 
Junction-57983     110.21499633789062       12.618413689106525 
Junction-33774     110.01000213623047       0 
Junction-23601     98.12299346923828       0.9058150143583903 
Junction-23428     88.71500396728516       0 
Junction-11571     82.25999450683594       0 
Junction-42191     113.71499633789062       0 
Junction-22677     102.3125       0 
Junction-34099     88.03665924072266       0 
Junction-476228     104.04000091552734       0 
Junction-41622     128.06666564941406       0 
Junction-22891     107.58999633789062       0 
Junction-33577     105.37332916259766       2.3060580016395313 
Junction-41168     110.68000030517578       1.5749152687223162 
Junction-473838     110.25499725341797       0 
Junction-23268     112.71499633789062       0.867634983206002 
Junction-10788     111.8133316040039       0.5536065393739235 
Junction-473830     110.5       0 
Junction-10136     102.70999908447266       0 
Junction-476730     103.29000091552734       0 
Junction-60556     100.20999908447266       0 
Junction-60428     108.57250213623047       12.845582844166916 
Junction-54467     120.21499633789062       13.577680845916214 
Junction-54577     91.33000183105469       0 
Junction-41888     115.0300064086914       0 
Junction-33285     104.42500305175781       1.9269749102200118 
Junction-23684     86.3699951171875       0 
Junction-32979     101.23250579833984       0 
Junction-476225     107.63333129882812       0 
Junction-21741     115.3731689453125       0 
Junction-33574     105.20999908447266       0 
Junction-23919     78.75999450683594       0.05375085026025772 
Junction-42620     85.27999877929688       0 
Junction-54613     86.7300033569336       0 
Junction-33187     102.99333953857422       2.473094639256063 
Junction-34278     77.58999633789062       0.05334165692329407 
Junction-54233     123.62999725341797       1.7142716782081062 
Junction-22987     115.19666290283203       40.2815639391169 
Junction-41619     128.0366668701172       0 
Junction-42532     99.45999908447266       1.212207484905976 
Junction-470196     132.25       0 
Junction-11445     84.96499633789062       0.0619640089571476 
Junction-23577     94.24666595458984       1.5539164863286452 
Junction-48816     119.97000122070312       0.7521415976758484 
Junction-53974     125.4666748046875       0 
Junction-454646     103.91999816894531       0 
Junction-22999     134.76333618164062       0 
Junction-10504     132.90499877929688       0.36251866817474365 
Junction-49383     89.66999816894531       0.05322474613785744 
Junction-42528     95.05999755859375       0 
Junction-58029     120.6199951171875       0.7559592960407269 
Junction-54606     87.07666778564453       0.024551773443818092 
Junction-54458     110.1300048828125       0.1250385992306563 
Junction-33469     118.93000030517578       1.359199950041221 
Junction-32124     119.4949951171875       0 
Junction-22374     131.4199981689453       0 
Junction-49052     110.81999969482422       1.8326289758403762 
Junction-11566     84.76506805419922       0 
Junction-10496     114.41250610351562       0 
Junction-9986     110.06400299072266       0 
Junction-11342     90.1866683959961       0.04118267819285393 
Junction-11581     79.97000122070312       0.029754415154457092 
Junction-23821     89.08333587646484       0.032443419098854065 
Junction-11424     86.88252258300781       0 
Junction-48738     108.38249206542969       0 
Junction-58188     92.5300064086914       2.6410852278652808 
Junction-23125     112.84249877929688       0 
Junction-60427     106.1950454711914       11.890133468087068 
Junction-10790     104.20500183105469       0 
Junction-34008     97.34000396728516       2.8396203685321684 
Junction-9661     122.97332763671875       1.4632395815570411 
Junction-33588     107.78500366210938       1.5777789337295458 
Junction-10495     114.44499969482422       1.91280632468522 
Junction-476062     104.01333618164062       0 
Junction-8760     117.0633316040039       1.5567801513358746 
Junction-475209     106.31749725341797       1.379244287252432 
Junction-34003     100.68000030517578       0 
Junction-49261     105.5050048828125       1.469921192024036 
Junction-471288     116.67500305175781       2.0378449033246357 
Junction-54271     117.97249603271484       0 
Junction-49241     95.59249877929688       2.476912255255979 
Junction-10824     119.4000015258789       0 
Junction-42335     114.75       1.957667554479792 
Junction-21750     109.78665924072266       0.7874576343611581 
Junction-10403     124.22000122070312       1.4107422961130143 
Junction-11431     94.45000457763672       0 
Junction-53912     113.44000244140625       1.9061248789481497 
Junction-476664     103.9800033569336       0 
Junction-41893     130.0833282470703       0.05994724854826927 
Junction-23138     113.21666717529297       0 
Junction-33069     109.24000549316406       0 
Junction-474891     107.65499877929688       0 
Junction-34004     100.03500366210938       1.5959142158459119 
Junction-21510     120.1939926147461       0 
Junction-42324     99.82500457763672       3.4562232550871053 
Junction-23828     78.62999725341797       0.6757819060134019 
Junction-49235     98.5633316040039       2.8882993790565807 
Junction-476250     104.11720275878906       0 
Junction-468961     121.44999694824219       1.093850187273706 
Junction-33280     104.07499694824219       0.6652823089041607 
Junction-54455     89.66499328613281       0 
Junction-42307     101.89999389648438       1.1845271744102723 
Junction-62459     114.41250610351562       nan 
Junction-49245     97.60333251953125       0 
Junction-10631     112.55000305175781       0 
Junction-11348     84.6500015258789       0 
Junction-471222     123.7103500366211       14.448178341019974 
Junction-49062     106.9000015258789       2.324193283755897 
Junction-461031     83.33000183105469       0.05474460870027542 
Junction-465712     113.52999877929688       nan 
Junction-54180     103.75       1.062351848953275 
Junction-473837     110.07666015625       0 
Junction-464006     88.67333984375       0.03358331695199013 
Junction-33876     87.51000213623047       2.8319841481527885 
Junction-10121     103.19000244140625       0 
Junction-465844     111.68000030517578       0 
Junction-10823     119.4159927368164       0 
Junction-473953     111.86000061035156       0 
Junction-23811     89.84898376464844       0.042790237814188004 
Junction-10792     100.08000183105469       0 
Junction-49389     80.15089416503906       2.7002641237763028 
Junction-54650     85.23333740234375       0 
Junction-42619     86.88999938964844       0.032443419098854065 
Junction-33066     101.98999786376953       2.177200983350577 
Junction-10285     113.50999450683594       0 
Junction-49262     104.64031219482422       8.950292072418543 
Junction-42176     110.94999694824219       1.8431283670372118 
Junction-33776     112.56000518798828       0 
Junction-11448     85.04999542236328       0.05728747323155403 
Junction-54446     105.72000122070312       0.749278015033581 
Junction-42536     84.46204376220703       0 
Junction-54576     91.65499877929688       0.05068187415599823 
Junction-465061     95.1866683959961       0.07809802889823914 
Junction-33194     102.5633316040039       1.386880013442038 
Junction-462036     108.57666015625       1.093850187273706 
Junction-42339     113.82750701904297       0.9229958512922961 
Junction-10485     109.989990234375       0 
Junction-466552     113.0233383178711       0 
Junction-22518     124.11199951171875       1.5644157127955562 
Junction-22793     107.59333038330078       0 
Junction-473835     110.05500030517578       0 
Junction-469532     110.28665924072266       0 
Junction-33364     113.89250183105469       0 
Junction-476183     108.3499984741211       0 
Junction-10144     112.05999755859375       0 
Junction-33996     99.0999984741211       0 
Junction-23275     110.26667022705078       1.745769851798613 
Junction-22810     125.7550048828125       1.229388321839882 
Junction-467856     121.7874984741211       0 
Junction-10831     117.41999816894531       0 
Junction-54462     114.13666534423828       3.525901048005189 
Junction-33065     111.28572082519531       14.32218498773825 
Junction-456397     118.7699966430664       1.630276054443648 
Junction-33601     113.13999938964844       0 
Junction-11036     116.85499572753906       1.7486335168058427 
Junction-33600     113.2266616821289       0.8113200817620588 
Junction-33470     118.6833267211914       0 
Junction-473834     111.37000274658203       0 
Junction-48744     103.75999450683594       2.15620236568683 
Junction-23590     105.02999877929688       1.2608869072552 
Junction-49324     96.22999572753906       1.9786663368734632 
Junction-48874     123.7249984741211       0 
Junction-23277     113.94499969482422       0.5784233495923221 
Junction-11031     114.8699951171875       0 
Junction-41792     108.88500213623047       28.679685435607073 
Junction-58346     83.87000274658203       0.13228729367256165 
Junction-21744     113.68000030517578       0 
Junction-11029     102.04773712158203       0 
Junction-54183     102.93000030517578       0 
Junction-54457     109.80249786376953       0 
Junction-476579     105.99000549316406       0 
Junction-49256     110.54499816894531       0 
Junction-48746     113.7261734008789       2.3795539047473047 
Junction-60607     97.25333404541016       1.2150710675482435 
Junction-42186     108.54666900634766       1.4355591886963752 
Junction-465499     111.77999877929688       25.969875542166772 
Junction-11436     87.08999633789062       0 
Junction-32864     112.33999633789062       2.236380043991523 
Junction-474869     106.9800033569336       0.8504542286370583 
Junction-48742     102.15499877929688       3.1106966376645198 
Junction-10294     114.81500244140625       0 
Junction-23594     101.27000427246094       1.515736537541219 
Junction-469243     88.17500305175781       0.01972910203039646 
Junction-48397     111.3499984741211       0 
Junction-477554     79.88333129882812       0 
Junction-22797     105.368408203125       2.6582662295291115 
Junction-23705     83.29000091552734       0 
Junction-23600     109.19499969482422       0 
Junction-54450     91.77667236328125       1.0003100293196838 
Junction-10616     114.03499603271484       14.203827195916206 
Junction-460472     115.75249481201172       0 
Junction-58054     102.9333267211914       1.598777716123217 
Junction-10129     101.77332305908203       9.82460866609154 
Junction-22683     120.54000091552734       0.8189561374115139 
Junction-42336     114.17333984375       2.7623060257748557 
Junction-33472     118.68000030517578       0.9306319069417511 
Junction-41799     105.13500213623047       0 
Junction-54460     111.27332305908203       0 
Junction-11192     108.28759002685547       1.1425294448930055 
Junction-49055     100.75       2.1638382566063608 
Junction-473950     110.5050048828125       0 
Junction-41882     102.09667205810547       0 
Junction-33874     93.2933349609375       3.1011515269202197 
Junction-473885     111.13999938964844       0 
Junction-48811     103.34333038330078       0 
Junction-33363     113.86249542236328       6.608917128079118 
Junction-452856     110.2550048828125       1.6207312731591972 
Junction-49258     108.11000061035156       0 
Junction-33201     104.77000427246094       2.6124508840119285 
Junction-23252     103.92333984375       0 
Junction-21975     111.14999389648438       0.975493136736323 
Junction-463447     124.85333251953125       1.4842383639507124 
Junction-54579     79.86666870117188       0 
Junction-62473     103.875       nan 
Junction-58190     112.62999725341797       1.7696319697396647 
Junction-54232     111.35333251953125       2.4110524077976603 
Junction-471903     87.1837387084961       1.3382010029176254 
Junction-41884     104.44000244140625       0 
Junction-10501     120.2300033569336       0 
Junction-23805     86.86000061035156       0.05398467183113098 
Junction-476665     104.10333251953125       0 
Junction-474835     76.3800048828125       0.025720911100506783 
Junction-11574     80.05000305175781       0 
Junction-9985     106.72000122070312       0 
Junction-42609     85.87999725341797       0.047466762363910675 
Junction-42448     94.46499633789062       166.5792748649972 
Junction-464530     100.66666412353516       2.8052583652045073 
Junction-41626     121.60749816894531       2.299376555902461 
Junction-474013     109.58999633789062       0 
Junction-22519     124.04666900634766       0 
Junction-42101     113.83999633789062       0 
Junction-48612     120.01333618164062       0 
Junction-22385     101.71749877929688       0 
Junction-11182     92.26000213623047       0 
Junction-10399     127.90250396728516       2.069343241645067 
Junction-474078     104.3800048828125       0 
Junction-23418     108.93000030517578       0 
Junction-42028     126.23600769042969       0 
Junction-23248     108.82000732421875       0 
Junction-58278     86.95000457763672       0 
Junction-33777     114.03665924072266       3.692937850351645 
Junction-22807     118.8479995727539       1.7600870237252895 
Junction-460585     100.3499984741211       2.139021364023 
Junction-42110     101.45249938964844       2.6296315562159096 
Junction-11333     97.63333129882812       0 
Junction-10798     100.97000122070312       2.1428394742126895 
Junction-473828     104.05305480957031       0 
Junction-58116     125.15999603271484       0 
Junction-477225     106.52999877929688       0 
Junction-41623     128.04000854492188       0 
[...]
Junction-22789      362074.27210177004      400565.8192737083 
Junction-469106      360996.59099999815      401213.6719999984 
Junction-11331      363278.21810083336      401722.014271714 
Junction-10495      362539.21510140994      401036.43027289346 
Junction-476245      361154.97399999946      400414.0949999988 
Junction-460472      362756.15200000256      401434.48900000006 
Junction-54314      362601.9111013737      400669.9442735077 
Junction-54442      362902.32510116237      400520.40427374543 
Junction-23251      362750.86010126444      400673.824273491 
Junction-22896      362440.99310148496      400906.68127311725 
Junction-476668      361268.34099999815      400466.5370000005 
Junction-474018      361603.29299999774      400704.3759999983 
Junction-474021      361605.29100000113      400704.80099999905 
Junction-54271      362493.15810143895      401071.4972728421 
Junction-11030      362972.6921010755      401316.89427240647 
Junction-473892      361714.23900000006      400733.8839999996 
Junction-477249      361216.1560000032      400565.7419999987 
Junction-452105      363345.6770000011      401854.45699999854 
Junction-58348      363592.8468505965      401737.31627167645 
Junction-32858      361635.0441020767      400994.82827300415 
Junction-22999      362403.4101014867      401422.6402722525 
Junction-477251      361191.3599999994      400546.81500000134 
Junction-22379      361700.10510202625      400975.54827303404 
Junction-42101      362680.5421013278      400496.5862737977 
Junction-460585      362967.1965374321      400608.74910829734 
Junction-57807      361140.7201024329      401188.6752727006 
Junction-54652      363669.58310052607      402021.28827119316 
Junction-32860      361669.652102053      401016.5592729666 
Junction-33748      362972.6621010985      400745.7642733642 
Junction-33592      362858.5871011579      401274.7142724831 
Junction-10396      362226.77210162417      401341.526272396 
Junction-23264      362801.2011012052      401157.3332726787 
Junction-9983      361797.6351019562      400958.4952730618 
Junction-41890      362177.8741016573      401385.5382723238 
Junction-22677      361977.9051018142      401241.68827257643 
Junction-54142      362022.7801017924      400961.3352730423 
Junction-473955      361574.91899999976      400690.3599999994 
Junction-58243      363060.4721010125      401311.44127241115 
Junction-42610      363563.88410063996      401316.3292723794 
Junction-33881      363137.9501009552      401309.4372724142 
Junction-23688      363349.81210078986      401421.28727221466 
Junction-11191      363178.58610091254      401608.715271908 
Junction-62460      362513.40373505896      401079.9401293749 
Junction-42334      362973.86710106314      401529.4912720505 
Junction-33583      362899.89510115783      400682.2052734773 
Junction-60445      362053.3191017873      400476.0562738573 
Junction-23281      362894.38610110595      401939.3362713637 
Junction-10504      362423.96710147697      401390.0172723069 
Junction-477451      361128.88637500256      400426.0313749984 
Junction-32321      360917.36510260124      401197.501272696 
Junction-474893      361266.4689999968      400523.44099999964 
Junction-49388      363512.72328814433      402010.34558371623 
Junction-34012      363322.40110077884      402207.18527089513 
Junction-23255      362864.7031011735      400885.43127313367 
Junction-473881      361442.9629999995      400559.4230000004 
Junction-33764      362923.73910109623      401650.18427184597 
Junction-473878      361684.64400000125      400628.7030000016 
Junction-11013      362975.531101097      400795.8472732769 
Junction-10613      362601.7011013803      400499.50027379405 
Junction-42339      363018.93110102625      401686.4892717861 
Junction-10279      362105.9031017184      401172.6072726847 
Junction-60349      361362.00610226777      401185.8652726927 
Junction-33193      362234.14910165034      400519.97227377625 
Junction-58149      362620.4941013546      400902.4302731185 
Junction-11321      363262.7181008537      401516.7192720592 
Junction-33369      362468.1571014648      400841.4582732243 
Junction-465666      362736.16075752757      401980.2430373039 
Junction-23569      363141.37910098047      400586.38527362474 
Junction-462036      361009.3699999973      401312.0879999995 
Junction-49166      362961.5221011065      400738.52127337706 
Junction-21748      361025.60410252446      401122.08827281516 
Junction-10266      362063.67410178407      400470.6452738632 
Junction-473822      361514.19900000095      400585.48699999973 
Junction-473832      361440.6489999965      400642.36499999836 
Junction-60613      363346.83910078177      401731.4622716983 
Junction-11332      363311.08610081      401711.9982717291 
Junction-49437      363628.4541005603      402098.3862710678 
Junction-23268      362804.52410118986      401440.37527220557 
Junction-11562      363590.8321006202      401306.99227239954 
Junction-10392      362342.3731015463      401250.03327254415 
Junction-58116      362430.982101477      401280.51727249066 
Junction-469494      363487.74681250006      401879.08212500066 
Junction-41807      362048.6641017447      401554.2122720507 
Junction-474010      361615.2480000034      400612.35500000045 
Junction-22668      361978.7901018461      400416.034273962 
Junction-23259      362875.19010115706      400993.8832729551 
Junction-11347      363316.22810078546      402145.7072710014 
Junction-10305      362153.254101665      401682.81927182584 
Junction-33891      363171.1211009006      401943.00127134874 
Junction-473879      361680.9388749972      400635.8383749984 
Junction-460584      362746.7653125003      401437.04162500054 
Junction-42196      362880.85410111444      402020.9272712284 
Junction-48676      361850.90410189674      401456.5302722182 
Junction-58029      362027.1351017595      401591.4712719898 
Junction-60555      362948.2491011055      400949.3762730245 
Junction-54233      362261.3981015964      401451.29327221325 
Junction-23685      363309.2961008253      401229.8752725399 
Junction-9986      361864.57210189546      401196.3232726537 
Junction-23244      362740.90010127495      400574.39427366166 
Junction-23120      362604.2331013755      400696.30127346463 
Junction-33072      362040.53810175555      401562.46227203385 
Junction-22809      362144.33310167317      401563.8322720274 
Junction-54459      362954.37010108      401430.4212722153 
Junction-42177      362902.11010116024      400494.8412737935 
Junction-33759      362929.0081011014      401472.9942721447 
Junction-54607      363416.26310073293      401549.439271998 
Junction-476896      361131.87900000066      400386.83900000155 
Junction-60324      361186.12910239585      401321.04927247606 
Junction-33586      362829.054101199      400817.08727325365 
Junction-54524      363149.58116343024      401709.650959241 
Junction-49259      363110.4860665926      401866.8852721122 
Junction-33890      363192.4501008886      401936.1852713562 
Junction-10301      362198.4311016359      401610.42227194743 
Junction-48994      362589.0181013682      401047.7042728744 
Junction-48744      362049.56510175276      401357.2122723798 
Junction-23574      363087.7911010176      400655.48727351025 
Junction-10794      362797.3061012291      400746.5242733675 
Junction-54461      363065.26910100295      401405.85427225335 
Junction-470030      362145.6579999998      400518.58399999887 
Junction-54466      362972.943101059      401762.73727165884 
Junction-474011      361611.84018749744      400619.4236249998 
Junction-9049      360910.16910260473      401184.85027271387 
Junction-23702      363346.71810078254      401731.50927169644 
Junction-33774      363066.26710096915      402106.20527107816 
Junction-42023      362427.4451014812      401230.84427257406 
Junction-54379      362784.0971012211      401206.76227260166 
Junction-476246      361155.68299999833      400413.3729999997 
Junction-9500      361252.2751023546      401087.01927286555 
Junction-33283      362231.5361016472      400683.2232735034 
Junction-48988      362666.13510132226      400758.86527335655 
Junction-33215      362189.7611016445      401521.151272097 
Junction-49067      362829.0881011727      401484.6922721353 
Junction-476582      361148.44200000167      400499.0529999994 
Junction-10795      362836.9271012042      400630.8022735627 
Junction-22248      361485.0521021845      401097.4742728366 
Junction-58184      362889.18410116667      400583.02427364344 
Junction-22995      362517.0381014281      400957.92127302574 
Junction-477200      361238.2189999968      400548.1579999998 
Junction-41171      361040.7811025142      401126.01627280784 
Junction-461729      363425.6780000031      401821.36100000143 
Junction-48739      361905.074101872      401145.55127273867 
Junction-11027      362989.67810107017      401181.6522726303 
Junction-470198      362622.1330000013      402114.90199999884 
Junction-469491      361453.6579184105      401183.22524076846 
Junction-8529      360657.5401027897      401212.65527268394 
Junction-49065      362777.5381012212      401311.94927242585 
Junction-464122      363008.1150000021      400690.3060000017 
Junction-10283      362109.54210171377      401351.72627238394 
Junction-469693      363066.74099999666      400758.1099999994 
Junction-49391      363420.48810070154      402262.95327080286 
Junction-9503      361231.4241023727      401120.3222728119 
Junction-57809      361213.1371023805      401248.4272725993 
Junction-42434      363225.66110088397      401354.8352723318 
Junction-42194      362737.032101219      401967.3802713239 
Junction-9867      361659.5041020523      401164.9172727144 
Junction-42536      363332.97510077246      402197.79527091543 
Junction-23599      363090.7891009541      402028.88427120645 
Junction-41628      361548.9821021274      401316.1272724681 
Junction-11194      363098.32310096326      401713.43027173396 
Junction-10639      362717.02910125966      401376.20427231677 
Junction-49242      363117.0751009711      401295.6022724358 
Junction-33584      362883.0951011667      400662.60627350875 
Junction-42191      362802.3031011972      401460.79527217185 
Junction-10810      362823.628101198      400954.5622730191 
Junction-42327      362913.5121011209      401292.4612724489 
Junction-54509      363216.398100929      400519.0212737364 
Junction-54141      361964.8001018375      400813.83127329126 
Junction-469245      362115.12510174763      400379.2732740198 
Junction-10404      362319.1121015531      401502.4702721236 
Junction-8759      360750.8521027216      401172.7322727424 
Junction-33752      363026.24210105604      400775.03227331856 
Junction-54647      363626.14610058954      401294.6292724182 
Junction-469495      361724.45700000226      401108.68499999866 
Junction-49253      363111.2091009573      401633.76627186884 
Junction-477452      361128.29399999976      400438.0879999995 
Junction-22245      361397.69510224834      401101.2062728348 
Junction-22117      361353.9361022783      401076.8362728765 
Junction-48401      361069.0231024868      401245.1562726067 
Junction-23441      362911.8821011021      401700.7632717684 
Junction-41624      361639.7941020622      401248.51927257905 
Junction-54613      363526.3950381424      401857.8841464772 
Junction-23267      362806.7791011905      401446.08327219496 
Junction-9657      361452.6721022075      401052.7952729171 
Junction-471020      360989.9469582207      401259.66800265753 
Junction-11316      363286.4101008334      401440.278272184 
Junction-473945      361410.78575000167      400548.40131250024 
Junction-32327      360997.44510253856      401233.6952726275 
Junction-42611      363431.01210072683      401564.3912719706 
Junction-49158      362901.0291011572      400575.94627364917 
Junction-60394      361556.4851021229      401268.82127254386 
Junction-48747      362000.80110178376      401501.4802721389 
Junction-22796      362134.01910170086      401188.3472726538 
Junction-49063      362811.63410119986      401232.3382725528 
Junction-61115      362469.14170839917      401299.66310542286 
Junction-21975      361070.44710248057      401247.95627260173 
Junction-42024      362471.46410144866      401262.98127251735 
Junction-33216      362177.8971016526      401533.8212720737 
Junction-60348      361350.3711022837      401062.41327290103 
Junction-465441      362870.7551250011      402402.4354999997 
Junction-476254      361244.5879999995      400440.3599999994 
Junction-33470      362600.69310135796      401190.52627263265 
Junction-48405      361118.4961024452      401302.53827250586 
Junction-11423      363428.6231007378      401374.5022722919 
Junction-23824      363523.0821631368      401988.5633337568 
Junction-49052      362884.6481011763      400469.81427382934 
Junction-58236      363058.56510104163      400516.60427374934 
Junction-42617      363446.20610069914      401917.38527138205 
Junction-10831      362904.3441011056      401693.4812717766 
Junction-33757      362929.16310112074      401031.53927288717 
Junction-460468      362914.3589999974      402310.3520000018 
Junction-42110      362710.3311012924      400739.28227339085 
Junction-22990      362472.844101462      400802.1542732884 
Junction-23132      362623.03510134335      400983.58627298055 
Junction-33875      363104.97210100736      400640.09827353666 
Junction-41796      362048.1541017651      401123.46427277045 
Junction-34008      363400.20810074534      401536.87227201916 
Junction-474887      361260.50599999726      400537.1099999994 
Junction-465060      363345.188000001      401853.43400000036 
Junction-22791      362094.92610173667      400972.1332730186 
Junction-21979      361176.59510240424      401246.33427260123 
Junction-60495      362587.1361013701      401056.99327286077 
Junction-54571      363253.3951008601      401556.36927199375 
Junction-33761      363030.60610102105      401527.69627204875 
Junction-477197      361248.73799999803      400556.4849999994 
Junction-9279      361043.076102507      401121.3912728154 
Junction-33287      362249.3251016116      401319.22227243276 
Junction-11023      362904.20810112637      401198.88927260775 
Junction-49237      363195.6601009383      400539.4562737014 
Junction-22380      361697.04747703345      400964.99471055 
Junction-21750      361000.3661025304      401296.07527252316 
Junction-9289      361146.41410242603      401215.9182726526 
Junction-11011      363014.80510106904      400684.5872734662 
Junction-11580      363642.87910054706      402090.50127108133 
Junction-41948      362360.59610152803      401310.69227244717 
Junction-11040      362971.3281010577      401758.4422716653 
Junction-33201      362080.49910172983      401360.41727236833 
Junction-23433      363008.38910104847      401263.0662724929 
Junction-10289      362162.5801016673      401413.3852722806 
Junction-23434      362946.9001010916      401317.2302724061 
Junction-23833      363587.4311005866      402150.6512709821 
Junction-54578      363323.1651007767      402209.40627089376 
Junction-33204      362185.0981016506      401393.75627230894 
Junction-474081      361404.2829999998      400639.83900000155 
Junction-54610      363508.9691006555      401762.6462716394 
Junction-60557      363026.49485102214      401616.30245940073 
Junction-42025      362514.8741014165      401176.5882726596 
Junction-42307      362972.0981011025      400582.40627364087 
Junction-23118      362643.8101013541      400497.1702738009 
Junction-33194      362082.1161017407      401045.6362728996 
Junction-42324      363009.0011010516      401261.5312724955 
Junction-473818      361738.20600000024      400648.64400000125 
Junction-23913      363734.5836630075      401419.9551472027 
Junction-57934      361668.5511020492      401044.70127292315 
Junction-23260      362880.69510115555      400998.3792729446 
Junction-42330      363030.5641010332      401340.66327236086 
Junction-41707      361728.9271019932      401358.3912723852 
Junction-60431      362005.6161017796      401464.36127220164 
Junction-9665      361466.7871021904      401263.9122725595 
Junction-42523      363280.10410084645      401374.227272297 
Junction-54453      362943.6291011118      400945.84427303117 
Junction-33775      363032.1811010032      402001.6782712543 
Junction-476667      361273.72399999946      400480.73600000143 
Junction-41619      361656.8781020595      400989.9212730098 
Junction-49392      363469.44110066723      402260.25027080247 
Junction-54315      362660.4941013312      400752.53727336763 
Junction-49172      362996.56210105785      401258.9852724988 
Junction-473825      361512.0148750022      400585.1549374983 
Junction-21511      360759.8341027119      401260.14227259555 
Junction-41318      361071.0031024833      401221.08127264626 
Junction-62486      362848.505730404      401269.1431674175 
Junction-23271      362880.5431011368      401387.3092722944 
Junction-474890      361266.20400000364      400523.9210000001 
Junction-60323      361109.24710245436      401296.54227251705 
Junction-10263      362060.4831017884      400438.4152739197 
Junction-33602      362828.1831011636      401694.58727178094 
Junction-33767      362947.8161010748      401732.1692717098 
Junction-452728      362633.3580000028      400841.8189999983 
Junction-460469      362919.99599999934      402316.99500000104 
Junction-41622      361655.8761020638      400991.50227300613 
Junction-23430      363036.14510103187      401278.4202724698 
Junction-11448      363451.18610068446      402094.8232710778 
Junction-474078      361544.98731250316      400597.607562501 
Junction-476666      361199.21400000155      400396.6730000004 
Junction-49250      363204.4031008871      401618.7612718879 
Junction-48992      362574.3481013842      400886.1822731474 
Junction-42188      362861.8021011548      401367.6362723219 
Junction-10502      362473.8411014472      401170.1712726701 
Junction-11193      363098.16610096564      401714.01427173085 
Junction-10119      361994.75310182833      400540.1992737528 
Junction-34394      363936.0011003285      402167.1982709385 
Junction-476592      361157.74599999934      400407.29300000146 
Junction-476584      361126.4399999976      400491.61100000143 
Junction-473890      361502.8149999976      400664.7470000014 
Junction-10297      362112.6121017068      401466.6562721903 
Junction-10799      362751.3141012612      400822.9852732432 
Junction-11436      363520.3201006521      401737.88227167766 
Junction-9859      361558.24010212225      401314.5642724689 
Junction-33880      363146.92410094757      401312.530272407 
Junction-33282      362253.52810162946      400680.36227350513 
Junction-22799      362144.5281016829      401326.91127242433 
Junction-22804      362203.03110164485      401362.7252723664 
Junction-23420      362968.3851011073      400549.2452736959 
Junction-49257      363085.72110096866      401853.15427150164 
Junction-34101      363576.4171006122      401764.88727163034 
Junction-23805      363533.08753814345      401765.45527162997 
Junction-468956      363836.4875729386      402034.80210393993 
Junction-473819      361738.1563749984      400649.24624999985 
Junction-477554      363622.5475271042      401413.4872804682 
Junction-465440      362869.0850000009      402364.5170000009 
Junction-57984      361764.57810196956      401312.1252724683 
Junction-477550      363627.43912500143      401413.6876249984 
Junction-33061      361999.7581018257      400580.75227368483 
Junction-34185      363588.9854755994      401822.33545903116 
Junction-54572      363323.1481008007      401708.32127173414 
Reservoir-62451      363337.6380846192      402192.21325909125 
Reservoir-61346      363338.78690586734      402194.7476095014 
Reservoir-62450      363332.8554078551      402192.601170878 
