[TITLE]
Generated from GeoJSON

[JUNCTIONS]
;ID     Elevation       Demand      Pattern
Junction-60611     99.5500031       0 
Junction-10290     111.5599976       0 
Junction-41888     115.0300064       0 
Junction-49065     110.7949982       0 
Junction-10827     117.2250061       0 
Junction-54516     84.7266617       0 
Junction-9287     109.2450027       0 
Junction-476059     109.3524933       0 
Junction-469304     104.5299988       0 
Junction-48265     112.8424988       0 
Junction-42013     110.5999985       0 
Junction-57809     111.9499969       0 
Junction-33759     112.0599976       0 
Junction-470031     104.2460632       0 
Junction-42025     119.5699997       0 
Junction-54461     105.496666       0 
Junction-11436     87.0899963       0 
Junction-23919     78.7599945       0 
Junction-41947     122.8633347       0 
Junction-475421     125.9766769       0 
Junction-49160     106.8099976       0 
Junction-61114     132.5       0 
Junction-9508     105.4999924       0 
Junction-42342     113.1800003       0 
Junction-11571     82.2599945       0 
Junction-49066     116.8600006       0 
Junction-11035     117.1533279       0 
Junction-23828     78.6299973       0 
Junction-470703     126.0875015       0 
Junction-473891     110.7099991       0 
Junction-33472     118.6800003       0 
Junction-473880     104.5999985       0 
Junction-34011     93.3099976       0 
Junction-475030     125.9333267       0 
Junction-49061     93.0166626       0 
Junction-42103     108.5550003       0 
Junction-23136     112.6100006       0 
Junction-452856     110.2550049       0 
Junction-21330     122.8300018       0 
Junction-62466     111.0099945       0 
Junction-476246     103.9800034       0 
Junction-476548     113.4766617       0 
Junction-57908     126.1549988       0 
Junction-33881     96.3866653       0 
Junction-33585     99.5449982       0 
Junction-41619     128.0366669       0 
Junction-54524     106.996666       0 
Junction-471082     126.75       0 
Junction-48998     118.4199982       0 
Junction-48738     108.3824921       0 
Junction-22788     103.3419952       0 
Junction-42313     96.8574982       0 
Junction-60289     115.1900024       0 
Junction-23573     95.4640045       0 
Junction-62446     84.5526657       0 
Junction-33281     105.7700043       0 
Junction-476231     104.3199997       0 
Junction-476802     103.2624969       0 
Junction-22896     109.961998       0 
Junction-54034     131.4400024       0 
Junction-62477     110.6900024       0 
Junction-476804     104.0479965       0 
Junction-42016     109.3600006       0 
Junction-33285     104.4250031       0 
Junction-473830     110.5       0 
Junction-53912     113.4400024       0 
Junction-60447     104.4250031       0 
Junction-10263     103.9733276       0 
Junction-10123     107.9900055       0 
Junction-22899     118.6657486       0 
Junction-60615     80.6800003       0 
Junction-23135     112.8300018       0 
Junction-8758     121       0 
Junction-476226     107.3300018       0 
Junction-42023     123.2980118       0 
Junction-22518     124.1119995       0 
Junction-41792     108.8850021       0 
Junction-23598     103.0950012       0 
Junction-33369     109.9800034       0 
Junction-23280     119.7174988       0 
Junction-42446     101.8533325       0 
Junction-474078     104.3800049       0 
Junction-9289     111.090004       0 
Junction-22117     123.6033325       0 
Junction-57808     111.6700058       0 
Junction-473956     111.7133408       0 
Junction-474075     106.9324951       0 
Junction-48876     129.4799957       0 
Junction-54379     107.4324951       0 
Junction-476651     104.9300003       0 
Junction-42189     116.5999985       0 
Junction-23821     89.0833359       0 
Junction-11204     101.3499985       0 
Junction-473833     110.7050018       0 
Junction-23578     82.8199997       0 
Junction-23813     89.6900024       0 
Junction-32863     122.4666672       0 
Junction-60430     108.1266708       0 
Junction-9664     104.6450043       0 
Junction-477199     108.2399979       0 
Junction-33777     114.0366592       0 
Junction-22913     137.9499969       0 
Junction-9859     106.7600021       0 
Junction-49391     80.2333374       0 
Junction-49174     110.4000015       0 
Junction-23442     117.1566696       0 
Junction-10281     102.3399963       0 
Junction-49439     79.0050049       0 
Junction-464891     88.25       0 
Junction-21975     111.1499939       0 
Junction-49067     113.8300018       0 
Junction-49392     79.9949951       0 
Junction-33477     113.6300049       0 
Junction-54374     109.4860077       0 
Junction-32859     129.2350006       0 
Junction-23452     110.3800049       0 
Junction-54647     79.6549988       0 
Junction-476896     104.0699997       0 
Junction-33187     102.9933395       0 
Junction-11443     85.9949951       0 
Junction-54270     110.3166733       0 
Junction-33877     87.2600021       0 
Junction-61985     103.0050049       0 
Junction-33362     113.8000031       0 
Junction-23139     118.788147       0 
Junction-42308     102.1999969       0 
Junction-58239     89.0740051       0 
Junction-11320     92.1349945       0 
Junction-474623     114.3366699       0 
Junction-473950     110.5050049       0 
Junction-54037     121.7149963       0 
Junction-54651     80.1800003       0 
Junction-60427     106.1950455       0 
Junction-61037     115.1600037       0 
Junction-49244     95.5248489       0 
Junction-53973     125.0249939       0 
Junction-22789     102.0600052       0 
Junction-9984     120.3549957       0 
Junction-48812     104.3799973       0 
Junction-23602     97.9225006       0 
Junction-22669     103.6520004       0 
Junction-9662     122.4275055       0 
Junction-32123     122.2833328       0 
Junction-32519     111.3566666       0 
Junction-23691     100.7099991       0 
Junction-21744     113.6800003       0 
Junction-32858     129.2966766       0 
Junction-33591     105.4066696       0 
Junction-33576     112.6900024       0 
Junction-472532     113.0599976       0 
Junction-33280     104.0749969       0 
Junction-42443     104.5749969       0 
Junction-23266     115.4649963       0 
Junction-11317     95.6175003       0 
Junction-11194     110.9599991       0 
Junction-23913     80.6775055       0 
Junction-10506     126.9825058       0 
Junction-32322     115.2640839       0 
Junction-58355     81.9899979       0 
Junction-34006     95.4200058       0 
Junction-474072     107.1900024       0 
Junction-9854     128.3499908       0 
Junction-23131     112.7916641       0 
Junction-9509     106.3366699       0 
Junction-33066     101.9899979       0 
Junction-22904     120.2099991       0 
Junction-48819     115.9466629       0 
Junction-23267     112.9599991       0 
Junction-62487     103.2799988       0 
Junction-9286     110.0566635       0 
Junction-42184     113.0566711       0 
Junction-54610     87.5999985       0 
Junction-54185     104.0366745       0 
Junction-33074     112.0637665       0 
Junction-11444     85.5100021       0 
Junction-23446     114.2600021       0 
Junction-49053     110.003334       0 
Junction-460477     106.4400024       0 
Junction-49068     114.2899933       0 
Junction-473835     110.0550003       0 
Junction-473946     110.5550003       0 
Junction-42333     114.9133301       0 
Junction-476228     104.0400009       0 
Junction-10269     103.0533371       0 
Junction-475188     93.5199738       0 
Junction-474077     103.7450027       0 
Junction-10268     103       0 
Junction-49070     114.1300049       0 
Junction-22519     124.046669       0 
Junction-54465     115.8933334       0 
Junction-57938     96.6707153       0 
Junction-476063     104.9126892       0 
Junction-49172     100.253334       0 
Junction-22375     127.0999908       0 
Junction-460478     111.4233398       0 
Junction-23273     108.6699982       0 
Junction-473818     105.8249969       0 
Junction-42620     85.2799988       0 
Junction-9506     120.9333267       0 
Junction-62462     111.159996       0 
Junction-48675     107.7099991       0 
Junction-42336     114.1733398       0 
Junction-22911     124.7449951       0 
Junction-471222     123.71035       0 
Junction-22245     124.027504       0 
Junction-474010     104.9524994       0 
Junction-48133     120       0 
Junction-42530     103.2249985       0 
Junction-58182     104.253334       0 
Junction-49072     117.2350006       0 
Junction-41707     103.5200043       0 
Junction-48993     113.6199951       0 
Junction-62449     84.5252838       0 
Junction-23681     93.7966614       0 
Junction-54578     84.159996       0 
Junction-41628     106.2099991       0 
Junction-473822     104.4049988       0 
Junction-464378     93.5599976       0 
Junction-11316     99.5233383       0 
Junction-49260     105.4100037       0 
Junction-49163     102.3099976       0 
Junction-10401     127       0 
Junction-33279     103.5699997       0 
Junction-33593     105.5999985       0 
Junction-33873     93.7833328       0 
Junction-34101     85.7940063       0 
Junction-42312     107.8450012       0 
Junction-11574     80.0500031       0 
Junction-469491     118.6866684       0 
Junction-34007     100.3899994       0 
Junction-22521     119.6100006       0 
Junction-60638     78.7600021       0 
Junction-23604     88.1649933       0 
Junction-33473     118.4166641       0 
Junction-54039     108.9249954       0 
Junction-473947     109.3699951       0 
Junction-474085     110.1100082       0 
Junction-11565     84.1266632       0 
Junction-8529     123.7249985       0 
Junction-58188     92.5300064       0 
Junction-476724     103.9200058       0 
Junction-23434     103.8600006       0 
Junction-21974     111.3666687       0 
Junction-60581     93.4649963       0 
Junction-41523     127.2099991       0 
Junction-33290     122.1999969       0 
Junction-49241     95.5924988       0 
Junction-473836     110.4700012       0 
Junction-54236     133.6799927       0 
Junction-11017     89.0400009       0 
Junction-54607     96.1133347       0 
Junction-54145     110.0999985       0 
Junction-465061     95.1866684       0 
Junction-11579     75.8966675       0 
Junction-465844     111.6800003       0 
Junction-33192     110.4499969       0 
Junction-42326     109.8233337       0 
Junction-474016     109.1949997       0 
Junction-10617     102.2174988       0 
Junction-58277     98.0950012       0 
Junction-33880     96.5550003       0 
Junction-11186     89.5999985       0 
Junction-473875     105.1500015       0 
Junction-9866     113.3450012       0 
Junction-476227     107.4349976       0 
Junction-23912     79.9174957       0 
Junction-62460     117.1800003       0 
Junction-22374     131.4199982       0 
Junction-54090     109.3199997       0 
Junction-60349     117.7000046       0 
Junction-22810     125.7550049       0 
Junction-11342     90.1866684       0 
Junction-49180     111.7600021       0 
Junction-451233     88.7683334       0 
Junction-60346     121.6399994       0 
Junction-58190     112.6299973       0 
Junction-11564     84.3811646       0 
Junction-9981     124.1750031       0 
Junction-48613     107.8724976       0 
Junction-33894     93.8499985       0 
Junction-41791     108.1050034       0 
Junction-10625     110.0499954       0 
Junction-471020     112.3699951       0 
Junction-473828     104.0530548       0 
Junction-22990     110.0500031       0 
Junction-58351     89.8399963       0 
Junction-42108     103.8466568       0 
Junction-54652     79.8033371       0 
Junction-54521     99.6699982       0 
Junction-22987     115.1966629       0 
Junction-9985     106.7200012       0 
Junction-22893     102.9300003       0 
Junction-42188     107.2249985       0 
Junction-476725     103.9320068       0 
Junction-54573     97.6333313       0 
Junction-9501     119.5299988       0 
Junction-41807     120.3199997       0 
Junction-476668     106.453331       0 
Junction-11312     96.6800003       0 
Junction-22797     105.3684082       0 
Junction-54235     122.7366638       0 
Junction-474007     104.4799957       0 
Junction-465847     125.1149979       0 
Junction-476993     113.8500061       0 
Junction-34189     80.4250031       0 
Junction-476060     108.8274994       0 
Junction-10142     113.9899979       0 
Junction-41627     121.5299988       0 
Junction-33756     91.0599976       0 
Junction-9279     110.2699966       0 
Junction-54271     117.972496       0 
Junction-58028     114.5199966       0 
Junction-33289     121.4100037       0 
Junction-10143     114.3824921       0 
Junction-11005     105.1549988       0 
Junction-60607     97.253334       0 
Junction-9049     114.7600021       0 
Junction-58057     111.3399963       0 
Junction-23810     90.0800018       0 
Junction-23274     110.0442276       0 
Junction-23695     94.8433304       0 
Junction-54192     124.9649963       0 
Junction-10403     124.2200012       0 
Junction-476581     105.8899994       0 
Junction-42538     84.5115891       0 
Junction-9046     114.5999985       0 
Junction-49259     106.9499969       0 
Junction-33364     113.8925018       0 
Junction-11196     110.4674988       0 
Junction-42330     102.1849976       0 
Junction-9668     104.6800003       0 
Junction-23592     103.7399979       0 
Junction-11572     82.9700012       0 
Junction-477554     79.8833313       0 
Junction-42179     100.2299957       0 
Junction-58352     84.3349991       0 
Junction-33757     92.3099976       0 
Junction-469495     122.7800064       0 
Junction-10285     113.5099945       0 
Junction-10277     103.3000031       0 
Junction-49170     99.1900024       0 
Junction-474082     109.875       0 
Junction-22382     111.9466629       0 
Junction-54464     117.0699997       0 
Junction-58240     85.8733292       0 
Junction-23132     112.3699951       0 
Junction-49395     79.3399963       0 
Junction-11348     84.6500015       0 
Junction-32869     121.5999985       0 
Junction-11192     108.28759       0 
Junction-58238     91.4850006       0 
Junction-60612     97.2950058       0 
Junction-33374     123.7099991       0 
Junction-48811     103.3433304       0 
Junction-10122     107.9024963       0 
Junction-11349     84.5550003       0 
Junction-34095     87.8053894       0 
Junction-42017     113.9600067       0 
Junction-474014     109.0800018       0 
Junction-54318     114.2166672       0 
Junction-23449     113.3899994       0 
Junction-33463     113.2249985       0 
Junction-60290     110.1600037       0 
Junction-33072     120.3249969       0 
Junction-469571     113.0699997       0 
Junction-54142     107.7975006       0 
Junction-61319     111.0500031       0 
Junction-41429     122.3649979       0 
Junction-42444     105.8399963       0 
Junction-23258     94.8680038       0 
Junction-462909     111.1900024       0 
Junction-475816     94.7566605       0 
Junction-33069     109.2400055       0 
Junction-33896     93.5199966       0 
Junction-60394     110.5539932       0 
Junction-54507     98.4433289       0 
Junction-463447     124.8533325       0 
Junction-42623     88.8666611       0 
Junction-42187     109.7750015       0 
Junction-53911     113.0800018       0 
Junction-10829     120.2600021       0 
Junction-60514     102.9866714       0 
Junction-57807     111.9599991       0 
Junction-42627     79.0699997       0 
Junction-22804     111.2649994       0 
Junction-23687     95.4100037       0 
Junction-49319     84.8799973       0 
Junction-22903     120.4949951       0 
Junction-464530     100.6666641       0 
Junction-10805     101.8874969       0 
Junction-11333     97.6333313       0 
Junction-33193     109.840004       0 
Junction-11321     103.1150055       0 
Junction-58349     90.7699966       0 
Junction-48822     125.3950043       0 
Junction-54447     100.1150055       0 
Junction-58284     108.5199966       0 
Junction-61033     100.7200012       0 
Junction-49249     109.0166626       0 
Junction-469315     122.3000031       0 
Junction-23256     96.3899994       0 
Junction-42101     113.8399963       0 
Junction-49063     106.8099976       0 
Junction-21976     111.246666       0 
Junction-23918     78.9333344       0 
Junction-464465     95.1750031       0 
Junction-32325     110.2566605       0 
Junction-32760     126.2099991       0 
Junction-62482     105.4400024       0 
Junction-42191     113.7149963       0 
Junction-11327     94.6650009       0 
Junction-473943     104.2266617       0 
Junction-465667     132.8924866       0 
Junction-62474     101.1666641       0 
Junction-33580     99.2174988       0 
Junction-11039     116.1233292       0 
Junction-41167     114.5950012       0 
Junction-53744     112.1600037       0 
Junction-49326     94.9599991       0 
Junction-10494     115.1349945       0 
Junction-23819     86.7125015       0 
Junction-54452     91.2266617       0 
Junction-11201     104.6066666       0 
Junction-476791     100.4300003       0 
Junction-23594     101.2700043       0 
Junction-9858     121.8249969       0 
Junction-22679     102.4033279       0 
Junction-10486     110.0400009       0 
Junction-11435     86.7900009       0 
Junction-11429     82.0566635       0 
Junction-33194     102.5633316       0 
Junction-23688     94.4700012       0 
Junction-49069     114.0149994       0 
Junction-476116     109.0449982       0 
Junction-11347     85.9449997       0 
Junction-53842     110.2900009       0 
Junction-42531     103.3099976       0 
Junction-23568     101.9499969       0 
Junction-466028     104.3150024       0 
Junction-49389     80.1508942       0 
Junction-10790     104.2050018       0 
Junction-32520     111.375       0 
Junction-54448     93.5833359       0 
Junction-23246     105.3399963       0 
Junction-476803     103.1733322       0 
Junction-464122     93.3463364       0 
Junction-62472     102.1750031       0 
Junction-476249     104.1300049       0 
Junction-21979     111.4225006       0 
Junction-10628     113.0899963       0 
Junction-58077     136.996994       0 
Junction-61116     112.0149994       0 
Junction-23684     86.3699951       0 
Junction-22678     102.3466721       0 
Junction-477225     106.5299988       0 
Junction-10119     103.8099976       0 
Junction-473829     109.8883286       0 
Junction-23116     113.5566711       0 
Junction-10121     103.1900024       0 
Junction-10830     121.2433395       0 
Junction-10799     101.3800049       0 
Junction-34013     84.5001602       0 
Junction-49257     110.8099976       0 
Junction-57983     110.2149963       0 
Junction-10613     114.1699982       0 
Junction-33199     103.7700043       0 
Junction-33368     109.4349976       0 
Junction-58184     103.0749969       0 
Junction-42182     94.9166641       0 
Junction-11009     104.6299973       0 
Junction-54228     107.0100021       0 
Junction-465497     113.1350021       0 
Junction-58148     102.2300034       0 
Junction-477084     103.8933334       0 
Junction-54467     120.2149963       0 
Junction-10289     112.2900009       0 
Junction-10636     116.0299988       0 
Junction-476729     102.9066696       0 
Junction-42014     110.5       0 
Junction-477195     108.8274994       0 
Junction-9280     110.9799957       0 
Junction-62470     113.1833267       0 
Junction-33208     119.6999969       0 
Junction-41024     117.5875015       0 
Junction-54509     96.6233292       0 
Junction-10825     119.4266663       0 
Junction-60446     102.4000015       0 
Junction-54648     80.0500031       0 
Junction-53913     119.609993       0 
Junction-60429     111.4424973       0 
Junction-11205     100.1800003       0 
Junction-48820     116.7300034       0 
Junction-22668     103.7300034       0 
Junction-42677     85.0918884       0 
Junction-9988     104.8499985       0 
Junction-10393     120.2299957       0 
Junction-465499     111.7799988       0 
Junction-42186     108.546669       0 
Junction-61031     95.5966568       0 
Junction-465493     114.4800034       0 
Junction-23700     98.6500015       0 
Junction-473949     109.5540009       0 
Junction-9870     96.6716537       0 
Junction-33363     113.8624954       0 
Junction-476897     104       0 
Junction-22520     121.5100021       0 
Junction-22907     124.9066696       0 
Junction-23682     94.4925003       0 
Junction-49253     111.159996       0 
Junction-23800     86.7300034       0 
Junction-54234     122.9466629       0 
Junction-33582     99.2699966       0 
Junction-34008     97.340004       0 
Junction-42432     97.5800018       0 
Junction-476182     108.7166672       0 
Junction-8759     116.6300049       0 
Junction-48804     104.0999985       0 
Junction-476589     104.3699951       0 
Junction-461074     108.5099945       0 
Junction-33210     125.3733292       0 
Junction-42437     106.6899948       0 
Junction-10135     102.0149994       0 
Junction-33885     106.546669       0 
Junction-11181     92.2866592       0 
Junction-42339     113.827507       0 
Junction-476209     107.7233276       0 
Junction-58150     119.206665       0 
Junction-33993     85.0100021       0 
Junction-49168     93.1100006       0 
Junction-49382     89.1833267       0 
Junction-477251     107.5350037       0 
Junction-33205     118.1900024       0 
Junction-10629     124.2149963       0 
Junction-10131     102.5449982       0 
Junction-33475     114.9400024       0 
Junction-33577     105.3733292       0 
Junction-22671     104.2099991       0 
Junction-62447     84.5217514       0 
Junction-23577     94.246666       0 
Junction-33588     107.7850037       0 
Junction-41168     110.6800003       0 
Junction-10812     96.793335       0 
Junction-11007     108.4700012       0 
Junction-49380     94.5       0 
Junction-22112     121.3399963       0 
Junction-474013     109.5899963       0 
Junction-32328     107.0199966       0 
Junction-33871     98.3249969       0 
Junction-9663     121.2799988       0 
Junction-11323     100.890007       0 
Junction-49243     97.1419983       0 
Junction-11044     113.0999985       0 
Junction-10798     100.9700012       0 
Junction-58149     111.3649979       0 
Junction-42533     101.3499985       0 
Junction-474020     110.5449982       0 
Junction-48742     102.1549988       0 
Junction-54313     109.9000015       0 
Junction-58281     87.1399994       0 
Junction-60513     105.1466675       0 
Junction-476666     104.2125015       0 
Junction-9284     112.1824951       0 
Junction-11020     86.5400009       0 
Junction-62488     104.0699997       0 
Junction-60580     94.1900024       0 
Junction-32323     116.7200012       0 
Junction-42106     106.8133316       0 
Junction-42448     94.4649963       0 
Junction-34186     84.7733383       0 
Junction-473837     110.0766602       0 
Junction-23426     92.4300003       0 
Junction-11025     100.7333298       0 
Junction-33288     111.5599976       0 
Junction-42679     78.5950012       0 
Junction-460470     111.6633301       0 
Junction-473888     111.6199951       0 
Junction-11027     94.1399994       0 
Junction-48994     112.9300003       0 
Junction-61984     103.0166626       0 
Junction-10116     103.4599991       0 
Junction-49393     80.0475006       0 
Junction-23698     94.9400024       0 
Junction-53845     105.1750031       0 
Junction-33589     106.890007       0 
Junction-470196     132.25       0 
Junction-32980     105.0899963       0 
Junction-53648     119.512001       0 
Junction-48608     130.9799957       0 
Junction-452727     108.0166702       0 
Junction-11198     104.8479996       0 
Junction-33470     118.6833267       0 
Junction-22682     114.6133347       0 
Junction-48740     109.5999985       0 
Junction-473820     105.0449982       0 
Junction-33761     113.1666641       0 
Junction-10637     118.4450073       0 
Junction-22377     127.8433304       0 
Junction-33064     110.796669       0 
Junction-33372     112.0100021       0 
Junction-34005     97.7400055       0 
Junction-41522     128.1100006       0 
Junction-41528     104.5350037       0 
Junction-54460     111.2733231       0 
Junction-58353     88.2033386       0 
Junction-10266     103.5200043       0 
Junction-42624     82.5500031       0 
Junction-48991     111.25       0 
Junction-48405     107.3199997       0 
Junction-33775     112.6150055       0 
Junction-11022     100.1699982       0 
Junction-10133     102.1333389       0 
Junction-49179     112.847496       0 
Junction-34191     80.2200012       0 
Junction-54510     95.9474945       0 
Junction-471226     133.3727112       0 
Junction-22676     108.3466568       0 
Junction-23428     88.715004       0 
Junction-10144     112.0599976       0 
Junction-476245     104.1675034       0 
Junction-10624     110.7433395       0 
Junction-465848     124.1772156       0 
Junction-54314     111.1199951       0 
Junction-10811     96.7000046       0 
Junction-62481     103.6600037       0 
Junction-10821     107.0933304       0 
Junction-454508     106.25       0 
Junction-23259     93.840004       0 
Junction-11012     91.6666641       0 
Junction-42315     93.4950027       0 
Junction-10129     101.7733231       0 
Junction-60614     96.2666626       0 
Junction-23816     88.8300018       0 
Junction-41893     130.0833282       0 
Junction-33750     90.1275024       0 
Junction-32979     101.2325058       0 
Junction-471288     116.6750031       0 
Junction-21511     120.5800018       0 
Junction-477158     108.1300049       0 
Junction-10491     117.1800003       0 
Junction-34009     96.9925003       0 
Junction-473885     111.1399994       0 
Junction-33752     89.2525024       0 
Junction-41942     107.0233383       0 
Junction-473953     111.8600006       0 
Junction-477197     108.7299957       0 
Junction-54456     89.1575012       0 
Junction-54523     111.0549927       0 
Junction-23251     101.6500015       0 
Junction-54606     87.0766678       0 
Junction-452728     108.1300049       0 
Junction-11203     103.0250092       0 
Junction-23249     108.7999954       0 
Junction-60323     107.8549957       0 
Junction-22114     122.2666702       0 
Junction-22988     114.25       0 
Junction-472172     87.8349991       0 
Junction-476614     106.5899963       0 
Junction-473877     104.5400009       0 
Junction-23440     114.4400024       0 
Junction-473839     110.7766724       0 
Junction-10125     109.8466568       0 
Junction-49175     102.7699966       0 
Junction-33890     101.8899994       0 
Junction-34278     77.5899963       0 
Junction-476584     104.9349976       0 
Junction-42609     85.8799973       0 
Junction-48737     106.2600021       0 
Junction-11329     97.125       0 
Junction-9503     118.5100021       0 
Junction-21978     111.4625015       0 
Junction-41430     121.8800049       0 
Junction-42619     86.8899994       0 
Junction-62101     102.8499985       0 
Junction-49381     86.7699966       0 
Junction-467698     93.3199997       0 
Junction-33218     125.2149963       0 
Junction-473593     122.0400009       0 
Junction-54616     78.9875031       0 
Junction-11425     86.9850006       0 
Junction-58189     106.4933395       0 
Junction-477200     108.4560089       0 
Junction-41889     105.2599945       0 
Junction-60222     118.5049973       0 
Junction-54232     111.3533325       0 
Junction-60428     108.5725021       0 
Junction-10141     108.9766617       0 
Junction-460469     114.3333359       0 
Junction-54577     91.3300018       0 
Junction-32518     111.1100006       0 
Junction-10485     109.9899902       0 
Junction-10820     107.7799988       0 
Junction-60608     96.625       0 
Junction-42439     103.512001       0 
Junction-469325     98.0766602       0 
Junction-41623     128.0400085       0 
Junction-33887     104.9449997       0 
Junction-58193     120.3299942       0 
Junction-9047     114.3800049       0 
Junction-470141     125.4500046       0 
Junction-468921     122.3566666       0 
Junction-33597     107.5833359       0 
Junction-41804     108.4250031       0 
Junction-474081     109.7649994       0 
Junction-54442     107.4840088       0 
Junction-476727     102.9300003       0 
Junction-33469     118.9300003       0 
Junction-10828     119.4850006       0 
Junction-9667     125.0183334       0 
Junction-33888     105.6625061       0 
Junction-22385     101.7174988       0 
Junction-474012     104.1750031       0 
Junction-22794     103.6733322       0 
Junction-10127     102.1799927       0 
Junction-42028     126.2360077       0 
Junction-54141     108.1833267       0 
Junction-474869     106.9800034       0 
Junction-42625     83.703331       0 
Junction-477133     105.5250015       0 
Junction-10283     105.2749939       0 
Junction-10627     112.7033386       0 
Junction-22900     111.2049942       0 
Junction-10395     111       0 
Junction-54513     83.2233353       0 
Junction-33287     111.2449951       0 
Junction-33766     117.0400009       0 
Junction-33765     117.1200027       0 
Junction-10832     117.6574936       0 
Junction-10404     134.1566772       0 
Junction-23824     87.0050049       0 
Junction-33063     108.1200027       0 
Junction-54525     92.3000107       0 
Junction-48873     121.6333313       0 
Junction-48746     113.7261734       0 
Junction-10284     104.5799942       0 
Junction-33883     107.0299988       0 
Junction-60584     102.9933395       0 
Junction-476591     104.6200027       0 
Junction-476224     107.9124985       0 
Junction-58287     107.5599976       0 
Junction-10501     120.2300034       0 
Junction-33889     104.7266617       0 
Junction-469494     88.75       0 
Junction-58244     116.8699951       0 
Junction-11188     84.215004       0 
Junction-476248     104.0666733       0 
Junction-10138     103.7149963       0 
Junction-23597     103.2949982       0 
Junction-469311     113.3200073       0 
Junction-11343     89.4016647       0 
Junction-41626     121.6074982       0 
Junction-477198     108.6300049       0 
Junction-42021     112.0074997       0 
Junction-33875     93.7766724       0 
Junction-54180     103.75       0 
Junction-54036     127.2300034       0 
Junction-21750     109.7866592       0 
Junction-42331     102.2250061       0 
Junction-476251     104.5333328       0 
Junction-58319     86.3000031       0 
Junction-23585     97.4759979       0 
Junction-60460     102.484993       0 
Junction-471421     104.6375046       0 
Junction-33747     91.4300003       0 
Junction-476653     104.9010468       0 
Junction-33191     110.9300003       0 
Junction-49386     86.6866684       0 
Junction-23811     89.8489838       0 
Junction-32871     121.6549988       0 
Junction-10391     119.6750031       0 
Junction-11014     88.4900055       0 
Junction-23831     79.2766647       0 
Junction-462494     94.5124969       0 
Junction-62473     103.875       0 
Junction-11573     80.5149994       0 
Junction-476726     103.9975052       0 
Junction-11447     85.2799988       0 
Junction-42429     87.6650009       0 
Junction-9869     97.6500015       0 
Junction-23569     96.0249939       0 
Junction-33778     110.5849991       0 
Junction-54181     100.3899994       0 
Junction-473954     111.6299973       0 
Junction-48809     98.9033279       0 
Junction-477452     103.9333267       0 
Junction-10280     102.4150009       0 
Junction-11345     84.4800034       0 
Junction-11434     92.5       0 
Junction-23417     108.9700012       0 
Junction-477137     105.1999969       0 
Junction-48810     103.4800034       0 
Junction-57984     106.4649963       0 
Junction-61113     96.6498871       0 
Junction-58147     110.0800018       0 
Junction-49385     85.6924973       0 
Junction-473889     111.5999985       0 
Junction-23279     114.9450912       0 
Junction-22383     111.0699997       0 
Junction-33283     99.706665       0 
Junction-58278     86.9500046       0 
Junction-23421     104.7799988       0 
Junction-32124     119.4949951       0 
Junction-473941     104.2799988       0 
Junction-48997     118.4524994       0 
Junction-9048     114.5950012       0 
Junction-23704     84.3150024       0 
Junction-42024     127.2300034       0 
Junction-57982     110.4599991       0 
Junction-10136     102.7099991       0 
Junction-469326     101.9400024       0 
Junction-54466     116.1500015       0 
Junction-11578     79.0799942       0 
Junction-10633     112.4850006       0 
Junction-23694     96.0049973       0 
Junction-60515     101.1100082       0 
Junction-60585     96.4366684       0 
Junction-11313     95.9150009       0 
Junction-474036     127.3724976       0 
Junction-42613     94.1524963       0 
Junction-22997     119.3499985       0 
Junction-473514     121.965004       0 
Junction-41805     113.6500015       0 
Junction-476592     103.8999939       0 
Junction-54146     108.8799973       0 
Junction-23441     117.0899963       0 
Junction-476230     105.25       0 
Junction-41519     124.6500015       0 
Junction-11190     99.9800034       0 
Junction-42319     90.953331       0 
Junction-54273     123.4199982       0 
Junction-10792     100.0800018       0 
Junction-41885     105.0774994       0 
Junction-41806     120.0899963       0 
Junction-476115     109.3733292       0 
Junction-23427     93.0675049       0 
Junction-22677     102.3125       0 
Junction-454646     103.9199982       0 
Junction-469314     122.1049957       0 
Junction-53914     118.9450073       0 
Junction-23703     89.1566696       0 
Junction-474079     109.8899994       0 
Junction-23137     114.2399979       0 
Junction-41939     102.1033325       0 
Junction-452400     87.845726       0 
Junction-34012     84.3399963       0 
Junction-23268     112.7149963       0 
Junction-49240     88.8300018       0 
Junction-57934     128.0833282       0 
Junction-474011     104.0859985       0 
Junction-49378     80.0800018       0 
Junction-58187     104.125       0 
Junction-42430     88.4750061       0 
Junction-460468     114.25       0 
Junction-475187     93.3634262       0 
Junction-54514     84.1233368       0 
Junction-49166     93       0 
Junction-33212     117.9049988       0 
Junction-33375     127.0199966       0 
Junction-473826     104.5699997       0 
Junction-48741     110.0166702       0 
Junction-23443     117.3299942       0 
Junction-10791     103.706665       0 
Junction-34394     78.5504913       0 
Junction-42621     85.1500015       0 
Junction-58151     118.6799927       0 
Junction-60636     87.6299973       0 
Junction-477250     107.8099976       0 
Junction-23121     110.9000015       0 
Junction-23697     98.8699951       0 
Junction-34001     102.6699982       0 
Junction-473840     110.7399979       0 
Junction-10826     122.1900024       0 
Junction-49071     114.1533279       0 
Junction-10616     114.034996       0 
Junction-49054     104.2633286       0 
Junction-22905     120.7250061       0 
Junction-11336     97.2400055       0 
Junction-9051     113.4900055       0 
Junction-58280     87.1920471       0 
Junction-42328     101.6100006       0 
Junction-33478     115.3050003       0 
Junction-33755     87.3049927       0 
Junction-474889     108.1450043       0 
Junction-54454     90.1920013       0 
Junction-42617     89.4733276       0 
Junction-473821     105.0899963       0 
Junction-54321     111.1399994       0 
Junction-33579     101.0866699       0 
Junction-22672     104.0400009       0 
Junction-9665     108.140007       0 
Junction-460472     115.7524948       0 
Junction-23418     108.9300003       0 
Junction-58354     80.8850021       0 
Junction-49169     99.4799957       0 
Junction-41802     105.1299973       0 
Junction-60610     100.777504       0 
Junction-58245     114.4349976       0 
Junction-22999     134.7633362       0 
Junction-49434     84.1466675       0 
Junction-34014     81.4833374       0 
Junction-469106     113.2075043       0 
Junction-58076     135.5800018       0 
Junction-33770     110.8466721       0 
Junction-23590     105.0299988       0 
Junction-49247     97.5599976       0 
Junction-49235     98.5633316       0 
Junction-23804     86.9899979       0 
Junction-11569     85.0050049       0 
Junction-23601     98.1229935       0 
Junction-33596     115.8050003       0 
Junction-62486     105.546669       0 
Junction-33062     108.4033432       0 
Junction-33216     124.796669       0 
Junction-22116     122.9850006       0 
Junction-9666     125.0875015       0 
Junction-22680     102.4400024       0 
Junction-472491     111.8574982       0 
Junction-10140     109.0199966       0 
Junction-49164     103.4733276       0 
Junction-60555     90.6200027       0 
Junction-22795     102.7099991       0 
Junction-33215     123.9079971       0 
Junction-23599     108.8000031       0 
Junction-476183     108.3499985       0 
Junction-23832     79.1600037       0 
Junction-469470     107.4300003       0 
Junction-23595     104.3925018       0 
Junction-461030     80.0724945       0 
Junction-23916     82.2350006       0 
Junction-9986     110.064003       0 
Junction-10297     114.9400024       0 
Junction-460581     113.7233353       0 
Junction-32762     119.6100006       0 
Junction-22798     114.4366684       0 
Junction-473887     111.0599976       0 
Junction-54515     84.4324951       0 
Junction-41709     103.9100037       0 
Junction-474084     110.5633316       0 
Junction-48402     111.4033279       0 
Junction-11567     84.7949982       0 
Junction-42306     105.7200012       0 
Junction-48736     106.5366592       0 
Junction-22250     125.2099991       0 
Junction-57935     113.1533432       0 
Junction-11562     80.8566666       0 
Junction-10815     115.6450043       0 
Junction-41171     110.0650024       0 
Junction-42528     95.0599976       0 
Junction-21510     120.1939926       0 
Junction-11032     114.9349899       0 
Junction-472535     93.5999985       0 
Junction-41803     108.7350006       0 
Junction-42523     96.0350037       0 
Junction-58320     81.0250015       0 
Junction-33219     125.2633362       0 
Junction-11185     91.5866699       0 
Junction-60348     124.2549973       0 
Junction-473944     104.7149963       0 
Junction-41882     102.0966721       0 
Junction-473819     106.0500031       0 
Junction-10823     119.4159927       0 
Junction-10502     120.4449997       0 
Junction-472492     111.9950027       0 
Junction-33586     100.3266602       0 
Junction-10618     102.5950012       0 
Junction-9860     110.0749969       0 
Junction-10304     121.3266602       0 
Junction-11423     87.5019989       0 
Junction-48877     125.064003       0 
Junction-474887     108.1900024       0 
Junction-23276     113.8800049       0 
Junction-57910     106.6750031       0 
Junction-23264     105.3849945       0 
Junction-470198     131.7299957       0 
Junction-33291     133.3800049       0 
Junction-62485     84.3666687       0 
Junction-10399     127.902504       0 
Junction-22894     105.7799988       0 
Junction-60495     113.0149994       0 
Junction-460473     115.7400055       0 
Junction-23567     102.9800034       0 
Junction-42324     99.8250046       0 
Junction-473951     110.5374985       0 
Junction-9661     122.9733276       0 
Junction-10265     103.8333359       0 
Junction-33209     125.4597168       0 
Junction-474471     124.5849991       0 
Junction-474888     108.1766663       0 
Junction-22247     128.5050049       0 
Junction-10795     103.6366653       0 
Junction-10293     111.5733337       0 
Junction-58021     104.1240005       0 
Junction-33465     109.7275009       0 
Junction-476252     105.0500031       0 
Junction-477550     79.9550018       0 
Junction-10120     101.5700073       0 
Junction-23424     93.5366592       0 
Junction-474018     110.6933365       0 
Junction-461729     91.5999985       0 
Junction-476117     109.0950012       0 
Junction-32125     118.7666626       0 
Junction-42337     115.9599991       0 
Junction-23252     103.9233398       0 
Junction-469693     87.4233322       0 
Junction-477252     107.6800003       0 
Junction-451223     87.9291687       0 
Junction-452401     88.6999969       0 
Junction-471221     123.6200027       0 
Junction-23588     97.7900009       0 
Junction-22991     109.706665       0 
Junction-473838     110.2549973       0 
Junction-49377     81.3666611       0 
Junction-61115     127.043335       0 
Junction-10308     130.5       0 
Junction-23433     99.7399979       0 
Junction-473881     104.546669       0 
Junction-41169     111.8099976       0 
Junction-48612     120.0133362       0 
Junction-22684     120.8737946       0 
Junction-33211     114.8650055       0 
Junction-11337     96.0599976       0 
Junction-49162     105.0699997       0 
Junction-465060     93.9150009       0 
Junction-476654     103.2850037       0 
Junction-54377     100.9733353       0 
Junction-473892     110.9700012       0 
Junction-468950     113.2399979       0 
Junction-58026     102.4499969       0 
Junction-42442     104.0700073       0 
Junction-469532     110.2866592       0 
Junction-33872     96.8559952       0 
Junction-11193     110.9899979       0 
Junction-476580     105.8925018       0 
Junction-23575     92.6450043       0 
Junction-474017     109.206665       0 
Junction-23263     106.4100037       0 
Junction-48674     124.0274963       0 
Junction-49323     87.7199936       0 
Junction-49258     108.1100006       0 
Junction-11030     102.4250031       0 
Junction-54446     105.7200012       0 
Junction-60407     124.3660049       0 
Junction-23570     97.3099976       0 
Junction-9862     121.9100037       0 
Junction-22113     122.1633301       0 
Junction-33068     109.2550049       0 
Junction-476208     107.75       0 
Junction-23142     114.1999969       0 
Junction-49176     102.7666626       0 
Junction-53571     122.9933243       0 
Junction-477135     104.5233383       0 
Junction-10493     112.3566666       0 
Junction-11452     78.5950012       0 
Junction-23593     103.3000031       0 
Junction-33884     106.6920013       0 
Junction-23248     108.8200073       0 
Junction-34099     88.0366592       0 
Junction-460585     100.3499985       0 
Junction-54512     95.7574997       0 
Junction-54450     91.7766724       0 
Junction-58291     87.8300018       0 
Junction-10508     128.5725098       0 
Junction-42105     112.1633301       0 
Junction-473890     111.9249954       0 
Junction-41793     108.1625061       0 
Junction-33278     103.4199982       0 
Junction-23827     80.4166641       0 
Junction-48826     129.6000061       0 
Junction-10392     118.7399979       0 
Junction-23574     93.1650009       0 
Junction-42334     115.1049957       0 
Junction-58286     106.1566696       0 
Junction-62448     84.5411224       0 
Junction-473823     103.9100037       0 
Junction-451226     87.875       0 
Junction-60583     108.8650055       0 
Junction-473948     111.9075012       0 
Junction-23814     89.4266663       0 
Junction-42539     81.4599991       0 
Junction-54189     125.5199966       0 
Junction-23587     97.7125015       0 
Junction-9285     112.0100021       0 
Junction-57742     111.8050003       0 
Junction-23702     97.3666687       0 
Junction-10810     97.5599976       0 
Junction-23596     103.4199982       0 
Junction-23808     89.2166672       0 
Junction-23277     113.9449997       0 
Junction-472169     87.8499985       0 
Junction-469165     127.9974976       0 
Junction-23260     93.5       0 
Junction-9278     110.1275024       0 
Junction-41797     107.8300018       0 
Junction-22673     103.1600037       0 
Junction-58056     105.3600006       0 
Junction-23603     88.1199951       0 
Junction-476212     106.9066238       0 
Junction-23586     97.7300034       0 
Junction-22246     128.8600006       0 
Junction-49322     87.5999908       0 
Junction-11424     86.8825226       0 
Junction-54571     102.0550003       0 
Junction-42185     115.7133255       0 
Junction-54576     91.6549988       0 
Junction-23436     101.6866684       0 
Junction-11581     79.9700012       0 
Junction-33365     107.3499985       0 
Junction-11184     87.1800003       0 
Junction-10301     131.9500122       0 
Junction-33574     105.2099991       0 
Junction-466127     115.8349991       0 
Junction-33767     115.8933334       0 
Junction-42535     84.7550049       0 
Junction-474891     107.6549988       0 
Junction-42341     111.1199951       0 
Junction-49384     87.1549988       0 
Junction-33771     116.4550018       0 
Junction-23138     113.2166672       0 
Junction-10264     103.4000015       0 
Junction-11314     96.1259995       0 
Junction-11445     84.9649963       0 
Junction-60445     103.4066696       0 
Junction-54508     97.296669       0 
Junction-41951     136.9600067       0 
Junction-473940     104.2900009       0 
Junction-54190     125.5799942       0 
Junction-33474     108.0500031       0 
Junction-476665     104.1033325       0 
Junction-469572     111.2700043       0 
Junction-11325     102.3150024       0 
Junction-23699     96.5400009       0 
Junction-466552     113.0233383       0 
Junction-10639     115.8600006       0 
Junction-23438     114.2175064       0 
Junction-54233     123.6299973       0 
Junction-452729     108.576767       0 
Junction-23801     81.4400024       0 
Junction-476254     105.7799988       0 
Junction-54459     109.2949982       0 
Junction-11021     99.7200012       0 
Junction-10819     108.6466675       0 
Junction-11191     107.1100006       0 
Junction-10137     101.5500107       0 
Junction-33197     102.6533432       0 
Junction-32764     105.3375015       0 
Junction-62489     111.0966721       0 
Junction-469433     129.3699951       0 
Junction-32978     105.9599991       0 
Junction-23685     80.5999985       0 
Junction-477157     108.042511       0 
Junction-33605     119.6450043       0 
Junction-22912     138.0233307       0 
Junction-42176     110.9499969       0 
Junction-474021     110.5966568       0 
Junction-42433     99.8499985       0 
Junction-466551     112.7399979       0 
Junction-476739     93.3634262       0 
Junction-11018     88.6374969       0 
Junction-22379     126.1699982       0 
Junction-11028     94.2200012       0 
Junction-476667     106.8199997       0 
Junction-34184     84.8699951       0 
Junction-9865     113.8399963       0 
Junction-54182     102.3266678       0 
Junction-473816     105.8335953       0 
Junction-9657     127.8499985       0 
Junction-49161     105.3566666       0 
Junction-456397     118.7699966       0 
Junction-11566     84.7650681       0 
Junction-48739     109.4524994       0 
Junction-465440     111.4166641       0 
Junction-468903     111.3099976       0 
Junction-60582     97.3233337       0 
Junction-23823     88.875       0 
Junction-469243     88.1750031       0 
Junction-33760     114.5100021       0 
Junction-48871     104.9366684       0 
Junction-41795     111.1600037       0 
Junction-23812     88.9250031       0 
Junction-21748     110.1233292       0 
Junction-61035     104.1600037       0 
Junction-42335     114.75       0 
Junction-23281     120.7166672       0 
Junction-48677     109.4749985       0 
Junction-23915     84.7666702       0 
Junction-11037     116.8349991       0 
Junction-58027     102.5699997       0 
Junction-469074     121.4449997       0 
Junction-23437     101.793335       0 
Junction-11182     92.2600021       0 
Junction-451227     87.9838867       0 
Junction-22897     105.2149963       0 
Junction-462113     98.4599991       0 
Junction-32872     110.3899918       0 
Junction-476579     105.9900055       0 
Junction-54458     110.1300049       0 
Junction-33190     110.8499985       0 
Junction-33893     97.2950058       0 
Junction-33601     113.1399994       0 
Junction-48744     103.7599945       0 
Junction-41949     125.9300003       0 
Junction-10803     101.9933243       0 
Junction-476211     106.8099976       0 
Junction-22811     132.1499939       0 
Junction-22670     104.1549988       0 
Junction-23422     103.6049957       0 
Junction-54186     112.1100006       0 
Junction-473884     104.5400009       0 
Junction-465496     113.0999985       0 
Junction-61032     96.6366653       0 
Junction-22992     117.0049973       0 
Junction-474835     76.3800049       0 
Junction-23825     86.7666626       0 
Junction-22793     107.5933304       0 
Junction-11016     82.9462585       0 
Junction-54453     90.8800049       0 
Junction-477451     104.1949997       0 
Junction-473942     105.1100006       0 
Junction-49052     110.8199997       0 
Junction-10793     99.8300018       0 
Junction-22527     106.1266708       0 
Junction-23448     114.0400009       0 
Junction-58075     123.5699997       0 
Junction-48673     123.3549957       0 
Junction-33213     118.7566757       0 
Junction-476225     107.6333313       0 
Junction-473886     111.4700012       0 
Junction-49250     105.2366638       0 
Junction-11330     97.2699966       0 
Junction-33583     98.9000015       0 
Junction-32860     127.5133362       0 
Junction-33743     102.4449997       0 
Junction-32327     113.2299957       0 
Junction-62456     113.9850006       0 
Junction-11335     97.2550049       0 
Junction-54650     85.2333374       0 
Junction-23118     114.1685562       0 
Junction-33998     88.0699997       0 
Junction-33058     103.4400024       0 
Junction-54316     102.1549988       0 
Junction-60613     97.3666687       0 
Junction-23430     98.4199982       0 
Junction-48805     110.5400009       0 
Junction-34185     85.1900024       0 
Junction-10396     110.9550018       0 
Junction-9282     111.7833252       0 
Junction-462036     108.5766602       0 
Junction-23600     109.1949997       0 
Junction-23589     105.8650055       0 
Junction-23255     96.1924973       0 
Junction-42431     97.6866684       0 
Junction-474886     108.1900024       0 
Junction-467411     103.0800018       0 
Junction-48874     123.7249985       0 
Junction-57687     118.0599976       0 
Junction-23127     111.9199982       0 
Junction-41886     104.453331       0 
Junction-41890     111.5699997       0 
Junction-32321     114.9400024       0 
Junction-41879     102.543335       0 
Junction-473878     105.3950043       0 
Junction-477196     108.465004       0 
Junction-10287     111.8999939       0 
Junction-22909     132.4766693       0 
Junction-9983     120.9750061       0 
Junction-33892     97.5766602       0 
Junction-11582     80.4766617       0 
Junction-42534     92.7299957       0 
Junction-32870     121.7099991       0 
Junction-471903     87.1837387       0 
Junction-11034     114.197998       0 
Junction-473825     104.4100037       0 
Junction-10492     112.6849976       0 
Junction-23262     105.4550018       0 
Junction-11576     79.8899994       0 
Junction-11577     79.0866699       0 
Junction-41940     101.9666748       0 
Junction-21329     122.9166641       0 
Junction-62469     101.4899979       0 
Junction-34107     79.6133347       0 
Junction-42614     94.2300034       0 
Junction-33772     112.2350006       0 
Junction-10128     102.0024948       0 
Junction-465441     110.3899994       0 
Junction-476062     104.0133362       0 
Junction-58054     102.9333267       0 
Junction-11334     97.5299988       0 
Junction-476898     103.9200058       0 
Junction-23270     107.1125031       0 
Junction-48263     111.9049988       0 
Junction-42180     101.7433395       0 
Junction-11036     116.8549957       0 
Junction-10489     111.3266678       0 
Junction-10808     97.5699997       0 
Junction-471897     87.0500031       0 
Junction-41318     111.8919907       0 
Junction-49236     99.2175064       0 
Junction-23120     110.921669       0 
Junction-473883     104.375       0 
Junction-41883     102.1166611       0 
Junction-42441     107.4649963       0 
Junction-54043     96.4067001       0 
Junction-42110     101.4524994       0 
Junction-60637     85.473999       0 
Junction-465565     106.4250031       0 
Junction-22249     125.375       0 
Junction-58183     111.6000061       0 
Junction-11042     114       0 
Junction-49165     98.6650009       0 
Junction-41799     105.1350021       0 
Junction-49237     97.1999969       0 
Junction-23000     127.2799988       0 
Junction-33748     91.9766769       0 
Junction-42626     80.9366684       0 
Junction-23591     104.6100006       0 
Junction-33768     116.6066666       0 
Junction-58346     83.8700027       0 
Junction-23444     116.109993       0 
Junction-48869     104.8950043       0 
Junction-49263     104.1450043       0 
Junction-11315     102.8600006       0 
Junction-473945     104.7400055       0 
Junction-49324     96.2299957       0 
Junction-60461     106.0800018       0 
Junction-54184     104.2200012       0 
Junction-473832     111.3699951       0 
Junction-471080     127.4706192       0 
Junction-33592     105.2319946       0 
Junction-23805     86.8600006       0 
Junction-23689     94.6649933       0 
Junction-49261     105.5050049       0 
Junction-22524     106.5366745       0 
Junction-49320     86.3233337       0 
Junction-476213     106.8533325       0 
Junction-42193     114.8549957       0 
Junction-60431     111.796669       0 
Junction-33599     108.4500046       0 
Junction-48676     104.5400009       0 
Junction-476656     103.9866638       0 
Junction-10496     114.4125061       0 
Junction-58186     100.9700012       0 
Junction-33367     109.4000092       0 
Junction-34393     78.5100021       0 
Junction-33468     113.3699951       0 
Junction-33575     112.1699982       0 
Junction-11199     104.8199997       0 
Junction-48986     105.0549927       0 
Junction-54373     108.375       0 
Junction-464006     88.6733398       0 
Junction-58114     120.0849991       0 
Junction-23439     114.3299942       0 
Junction-41891     110.9550018       0 
Junction-476061     109.3799973       0 
Junction-22675     108.3733292       0 
Junction-42525     96.0550003       0 
Junction-474071     108.8075027       0 
Junction-41706     106.2549973       0 
Junction-58024     107.7750015       0 
Junction-60221     118.4000015       0 
Junction-54376     102.0899963       0 
Junction-452725     108.0825043       0 
Junction-41884     104.4400024       0 
Junction-22891     107.5899963       0 
Junction-54457     109.8024979       0 
Junction-22378     127.7200012       0 
Junction-23692     101.6133423       0 
Junction-11013     92.5833359       0 
Junction-469242     85.2449951       0 
Junction-10124     109.3566666       0 
Junction-42340     114.046669       0 
Junction-33741     107.9775009       0 
Junction-23125     112.8424988       0 
Junction-58192     123.2266617       0 
Junction-9861     121.8207626       0 
Junction-48549     124.8650055       0 
Junction-48823     121.3975067       0 
Junction-470197     131.8399963       0 
Junction-468956     76.7200012       0 
Junction-463202     88.75       0 
Junction-41529     104.3233337       0 
Junction-41798     101.5593262       0 
Junction-468961     121.4499969       0 
Junction-60478     114.1949997       0 
Junction-42323     84.1833267       0 
Junction-10139     102.5100021       0 
Junction-58116     125.159996       0 
Junction-41796     101.4500046       0 
Junction-467856     121.7874985       0 
Junction-58074     109.2300034       0 
Junction-42317     90.0799942       0 
Junction-23269     106.9174957       0 
Junction-473827     104.6133347       0 
Junction-473882     104.6133347       0 
Junction-22796     102.75       0 
Junction-11338     95.8499985       0 
Junction-474890     107.9133301       0 
Junction-476652     104.9199982       0 
Junction-33891     102.0699997       0 
Junction-10634     112.5       0 
Junction-11031     114.8699951       0 
Junction-22901     111.25       0 
Junction-49256     110.5449982       0 
Junction-462500     98.1224976       0 
Junction-472531     113.0199966       0 
Junction-11324     99.3433304       0 
Junction-452726     108.9197006       0 
Junction-41026     119.7950058       0 
Junction-468957     76.284935       0 
Junction-61034     110.7149963       0 
Junction-49158     103.4199982       0 
Junction-33758     112.2566605       0 
Junction-10397     111.2024994       0 
Junction-477253     106.8099976       0 
Junction-11189     99.9700012       0 
Junction-474893     107.9075012       0 
Junction-9855     128.6750031       0 
Junction-42327     101.1699982       0 
Junction-41705     119.7850037       0 
Junction-477268     105.875       0 
Junction-10495     114.4449997       0 
Junction-58243     98.1600037       0 
Junction-58112     110.5633316       0 
Junction-34105     86.9550018       0 
Junction-33186     104.0100021       0 
Junction-22808     115.1549988       0 
Junction-48989     102.1733398       0 
Junction-54148     112.7399979       0 
Junction-49177     98.9400024       0 
Junction-475536     106.7200012       0 
Junction-54269     109.3099976       0 
Junction-11428     83.7599945       0 
Junction-41622     128.0666656       0 
Junction-54183     102.9300003       0 
Junction-42322     89.6100006       0 
Junction-48407     105.4766617       0 
Junction-473515     122.0274963       0 
Junction-10405     133.7299957       0 
Junction-32517     111.1766663       0 
Junction-11202     104.4734802       0 
Junction-48611     128.0725098       0 
Junction-22906     123.7859955       0 
Junction-60517     114.2052612       0 
Junction-42678     84.8899994       0 
Junction-464302     94.5299988       0 
Junction-469128     121.7233276       0 
Junction-34016     81.4000015       0 
Junction-22807     118.8479996       0 
Junction-9505     121.1699982       0 
Junction-465711     113.2133255       0 
Junction-476210     106.9000015       0 
Junction-11450     78.4666672       0 
Junction-33196     102.6399994       0 
Junction-11346     84.9324951       0 
Junction-23275     110.2666702       0 
Junction-32873     109.5928574       0 
Junction-54317     102.1700058       0 
Junction-9052     113.3424988       0 
Junction-23254     95.4599991       0 
Junction-33292     133.3999939       0 
Junction-54579     79.8666687       0 
Junction-9867     121.4199982       0 
Junction-42015     110.8800049       0 
Junction-22800     105.8099976       0 
Junction-33073     120.5800018       0 
Junction-11033     114.2200012       0 
Junction-42434     97.390007       0 
Junction-42427     95.3399963       0 
Junction-23833     78.9925003       0 
Junction-49321     95.6150055       0 
Junction-476655     103.9400024       0 
Junction-42435     97.5533371       0 
Junction-33207     119.3299942       0 
Junction-42307     101.8999939       0 
Junction-471900     86.9800034       0 
Junction-474080     110.4199982       0 
Junction-22380     126.25       0 
Junction-48821     125.6466675       0 
Junction-48397     111.3499985       0 
Junction-33584     100.6333313       0 
Junction-34003     100.6800003       0 
Junction-477132     104.6399918       0 
Junction-58279     86.8180008       0 
Junction-10816     115.6949997       0 
Junction-11023     99.9499969       0 
Junction-62468     101.6078568       0 
Junction-49074     122.2599945       0 
Junction-57806     108.6949997       0 
Junction-23445     116.4749985       0 
Junction-468750     106.0566635       0 
Junction-33598     107.7817841       0 
Junction-34182     84.4700012       0 
Junction-41948     123.1333389       0 
Junction-58242     103.2799988       0 
Junction-49438     77.625       0 
Junction-42610     80.5499954       0 
Junction-53570     123.2350006       0 
Junction-10288     111.8600082       0 
Junction-54462     114.1366653       0 
Junction-22681     114.6800003       0 
Junction-476250     104.1172028       0 
Junction-466030     112.859993       0 
Junction-473879     104.5633316       0 
Junction-10619     100.9766617       0 
Junction-49064     115.1930923       0 
Junction-22995     112.8766708       0 
Junction-470030     104.0199966       0 
Junction-48990     101.0866699       0 
Junction-60609     94.5950012       0 
Junction-32324     111.1933289       0 
Junction-473824     104.3950043       0 
Junction-23705     83.2900009       0 
Junction-461031     83.3300018       0 
Junction-49242     95.7799988       0 
Junction-23815     89.1575012       0 
Junction-9050     113.2099991       0 
Junction-21741     115.3731689       0 
Junction-41950     132.8233337       0 
Junction-41526     105.253334       0 
Junction-41624     113.9850006       0 
Junction-42343     114.3366699       0 
Junction-10631     112.5500031       0 
Junction-22803     105.7399979       0 
Junction-49383     89.6699982       0 
Junction-23690     103.0400009       0 
Junction-33763     117.0749969       0 
Junction-34187     79.0133362       0 
Junction-49062     106.9000015       0 
Junction-10276     101.5999985       0 
Junction-42447     88.0733414       0 
Junction-57811     104.4466629       0 
Junction-60496     118.3933334       0 
Junction-471899     87.4800034       0 
Junction-476005     109.3866653       0 
Junction-477134     104.5233383       0 
Junction-53974     125.4666748       0 
Junction-32861     126.6833267       0 
Junction-60634     94.1800003       0 
Junction-477552     79.8549957       0 
Junction-460577     114.3950043       0 
Junction-33282     100.5366745       0 
Junction-10270     101.6450043       0 
Junction-34104     85.3700027       0 
Junction-22998     119.6766663       0 
Junction-469245     110.7766647       0 
Junction-10807     98.2050018       0 
Junction-465712     113.5299988       0 
Junction-48814     113.5950012       0 
Junction-10822     106.9049988       0 
Junction-474834     76.3899994       0 
Junction-10614     114.2149963       0 
Junction-48735     104.0149994       0 
Junction-33202     105.8799973       0 
Junction-32857     131.4649963       0 
Junction-22791     102.9766617       0 
Junction-49325     95.6900024       0 
Junction-33061     103.4700012       0 
Junction-54611     86.0899963       0 
Junction-10626     108.8800049       0 
Junction-476229     104.034996       0 
Junction-477012     103.9649963       0 
Junction-42536     84.4620438       0 
Junction-54229     107.9700012       0 
Junction-451222     87.8950043       0 
Junction-10507     127.2350006       0 
Junction-8760     117.0633316       0 
Junction-33602     120.2366714       0 
Junction-54574     95.2633362       0 
Junction-54440     109.9500046       0 
Junction-62459     114.4125061       0 
Junction-58022     103.8374939       0 
Junction-54451     92.3450012       0 
Junction-476730     103.2900009       0 
Junction-33184     104.7799988       0 
Junction-476253     106.0499954       0 
Junction-34188     79.1500015       0 
Junction-48987     103.6633301       0 
Junction-53743     112.7440033       0 
Junction-9504     116.6600037       0 
Junction-22802     105.7149963       0 
Junction-473952     111.8466721       0 
Junction-472538     87.9499969       0 
Junction-32763     105.9000015       0 
Junction-23245     104.6600037       0 
Junction-42026     119.0633316       0 
Junction-34004     100.0350037       0 
Junction-48816     119.9700012       0 
Junction-34002     102.9000015       0 
Junction-54575     92.2300034       0 
Junction-48875     120.9599991       0 
Junction-474892     106.8624954       0 
Junction-42522     96.9899979       0 
Junction-58241     103.4349976       0 
Junction-33578     101.8899994       0 
Junction-49059     95.3300018       0 
Junction-33776     112.5600052       0 
Junction-33181     103.8866653       0 
Junction-33183     102.3950043       0 
Junction-476664     103.9800034       0 
Junction-49394     79.7249985       0 
Junction-33376     127.0580063       0 
Junction-49264     98.1766663       0 
Junction-474015     109.3299942       0 
Junction-10279     102.3833313       0 
Junction-460476     106.5780029       0 
Junction-58191     112.7799988       0 
Junction-33600     113.2266617       0 
Junction-9288     111.1966629       0 
Junction-32864     112.3399963       0 
Junction-42104     112.703331       0 
Junction-58347     88.1100006       0 
Junction-460641     122.0440063       0 
Junction-33603     117.7200012       0 
Junction-54322     118.4599991       0 
Junction-9857     125.8300018       0 
Junction-33999     103.046669       0 
Junction-477013     103.8933334       0 
Junction-23423     93.6600037       0 
Junction-23271     107.109993       0 
Junction-32521     113.1650009       0 
Junction-48988     102.2900009       0 
Junction-23130     112.6533279       0 
Junction-474008     104.0875015       0 
Junction-9500     120.7699966       0 
Junction-460584     115.8099976       0 
Junction-33206     111.2325058       0 
Junction-468904     111.3450012       0 
Junction-474009     104.0933304       0 
Junction-11019     85.7549973       0 
Junction-11570     83.1200027       0 
Junction-54615     79.9550018       0 
Junction-475209     106.3174973       0 
Junction-42445     102.8050003       0 
Junction-54613     86.7300034       0 
Junction-474074     106.7340088       0 
Junction-471356     126.7475052       0 
Junction-10267     103.4550018       0 
Junction-41629     100.3885651       0 
Junction-33604     117.7249985       0 
Junction-54378     100.640007       0 
Junction-42309     102.1999969       0 
Junction-42332     113.9433365       0 
Junction-33996     99.0999985       0 
Junction-10132     102.0299988       0 
Junction-49437     78.8866653       0 
Junction-54315     102.7074966       0 
Junction-10635     112.2125092       0 
Junction-23584     97.6800003       0 
Junction-48808     99.5034561       0 
Junction-23126     112.2566757       0 
Junction-54147     108.7299957       0 
Junction-42527     95.4800034       0 
Junction-470702     127.2600021       0 
Junction-33874     93.293335       0 
Junction-11341     90.9866638       0 
Junction-23450     112.4919891       0 
Junction-10499     123.8450012       0 
Junction-62490     108.0050049       0 
Junction-476118     108.7174988       0 
Junction-11011     93.2860031       0 
Junction-42622     88       0 
Junction-42611     94.8833313       0 
Junction-476247     104.0999985       0 
Junction-48872     121.6133423       0 
Junction-10487     110.1474991       0 
Junction-42181     93.8580017       0 
Junction-23576     94.6300049       0 
Junction-49327     92.3799973       0 
Junction-54572     98.2766647       0 
Junction-11326     102.7374954       0 
Junction-10307     130.9649963       0 
Junction-42194     132.406662       0 
Junction-474083     109.8974991       0 
Junction-465676     132.9700012       0 
Junction-62465     114.1999969       0 
Junction-42436     97.2833328       0 
Junction-33188     101.6866684       0 
Junction-34096     87.8199997       0 
Junction-58288     104.4225006       0 
Junction-10831     117.4199982       0 
Junction-41946     128.7850037       0 
Junction-476590     104.0850067       0 
Junction-10306     129.7449951       0 
Junction-473831     110.6699982       0 
Junction-10302     131.5350037       0 
Junction-21512     119.5066757       0 
Junction-10794     99.7266617       0 
Junction-33764     117.0800018       0 
Junction-54518     77.5299988       0 
Junction-48747     113.1533279       0 
Junction-41801     104.8849945       0 
Junction-42196     123.4866638       0 
Junction-60376     128.1999969       0 
Junction-57859     112.4550018       0 
Junction-33201     104.7700043       0 
Junction-473817     105.6699982       0 
Junction-10118     103.7733383       0 
Junction-54035     128.2850037       0 
Junction-48401     111.3199997       0 
Junction-23683     92.2399979       0 
Junction-42321     88.996666       0 
Junction-42329     100.2233276       0 
Junction-54455     89.6649933       0 
Junction-23579     83.2666702       0 
Junction-42532     99.4599991       0 
Junction-9281     110.6433334       0 
Junction-48815     111.6500015       0 
Junction-11040     116.0699997       0 
Junction-48546     126.9200058       0 
Junction-476180     108.1399994       0 
Junction-452105     93.9766617       0 
Junction-23420     104.3333359       0 
Junction-23129     112.1199951       0 
Junction-473955     111.625       0 
Junction-58025     102.4150009       0 
Junction-32326     111.6166687       0 
Junction-463968     93.8399963       0 
Junction-33742     108.1999969       0 
Junction-49178     97.8265762       0 
Junction-60633     80.7940063       0 
Junction-22248     125.9799957       0 
Junction-23278     116.7450027       0 
Junction-10788     111.8133316       0 
Junction-34094     81.1700058       0 
Junction-22799     105.5800018       0 
Junction-476728     102.9850006       0 
Junction-475535     107.5875015       0 
Junction-22908     132.7200165       0 
Junction-476583     105.9833374       0 
Junction-10130     102.5550003       0 
Junction-32329     105.1900024       0 
Junction-57743     107.2799988       0 
Junction-54441     107.4233398       0 
Junction-23257     95.2350006       0 
Junction-57805     111.3000031       0 
Junction-42521     96.3399963       0 
Junction-22892     103.003334       0 
Junction-54469     109.9799957       0 
Junction-42102     110.8549957       0 
Junction-33057     103.1200027       0 
Junction-11442     85.6299973       0 
Junction-477136     104.3799973       0 
Junction-10630     124.2133255       0 
Junction-22809     125.7366638       0 
Junction-33065     111.2857208       0 
Junction-469133     113.5966721       0 
Junction-42020     112.2300034       0 
Junction-54179     110.6549988       0 
Junction-54608     84.7724991       0 
Junction-33071     111.5040054       0 
Junction-23826     80.7749939       0 
Junction-54188     125.5999985       0 
Junction-54275     126.0199966       0 
Junction-11422     87.4133301       0 
Junction-33886     107.5766602       0 
Junction-11580     77.7733383       0 
Junction-460578     113.8325043       0 
Junction-48610     128.0700073       0 
Junction-34093     82.3499985       0 
Junction-48264     112.9749985       0 
Junction-62480     107.6100006       0 
Junction-48992     111.0999985       0 
Junction-473834     111.3700027       0 
Junction-11431     94.4500046       0 
Junction-42428     93.8849945       0 
Junction-22683     120.5400009       0 
Junction-41887     104.2699966       0 
Junction-49245     97.6033325       0 
Junction-11344     83.3219986       0 
Junction-11448     85.0499954       0 
Junction-11183     87.2399979       0 
Junction-58348     85.5100021       0 
Junction-21743     113.3799973       0 
Junction-41703     124.2200012       0 
Junction-464163     116.0100021       0 
Junction-34183     84.3699951       0 
Junction-41620     128.2200012       0 
Junction-476992     114.0025864       0 
Junction-22526     103.1175003       0 
Junction-10305     129.7949982       0 
Junction-48813     105.5359955       0 
Junction-58236     103.8899994       0 
Junction-477509     126.5490189       0 
Junction-10282     102.8199997       0 
Junction-474073     107.6500015       0 
Junction-454645     103.8466721       0 
Junction-474019     110.8933334       0 
Junction-58029     120.6199951       0 
Junction-49262     104.6403122       0 
Junction-33774     110.0100021       0 
Junction-476181     107.2300034       0 
Junction-53843     110.6180038       0 
Junction-473876     104.6433334       0 
Junction-60557     114.4850006       0 
Junction-49055     100.75       0 
Junction-54522     108.6533432       0 
Junction-473874     105.3224945       0 
Junction-469379     105.6341019       0 
Junction-49173     98.2949982       0 
Junction-11332     99.0199966       0 
Junction-60324     104.7149963       0 
Junction-32761     120.1700058       0 
Junction-11029     102.0477371       0 
Junction-49239     95.9950027       0 
Junction-42019     112.1674957       0 
Junction-11331     100.9400024       0 
Junction-465666     132.4299927       0 
Junction-11438     87.1626129       0 
Junction-42177     109.2566757       0 
Junction-469493     89.043335       0 
Junction-41170     112.296669       0 
Junction-23696     99.1399994       0 
Junction-48399     111.8924942       0 
Junction-10294     114.8150024       0 
Junction-10504     132.9049988       0 
Junction-61036     84.1299973       0 
Junction-22523     122.8549957       0 
Junction-477249     108.543335       0 
Junction-33751     90.0019989       0 
Junction-49388     87.9150009       0 
Junction-462456     113.2399979       0 
Junction-21513     119.2200012       0 
Junction-48827     130.0549927       0 
Junction-41025     117.890007       0 
Junction-60558     119.3533325       0 
Junction-33876     87.5100021       0 
Junction-468877     106.3174973       0 
Junction-60632     80.8700027       0 
Junction-48262     111.8066635       0 
Junction-32320     115.0899963       0 
Junction-42316     87.9050064       0 
Junction-33204     111.890007       0 
Junction-9660     129.3300018       0 
Junction-10824     119.4000015       0 
Junction-23244     107.9800034       0 
Junction-474076     104.3600082       0 
Junction-60556     100.2099991       0 
Junction-48679     109.4550018       0 
Junction-58111     114.1750031       0 
Junction-34000     102.25       0 
Junction-33195     104.0699997       0 
Junction-10814     107.3649979       0 
Junction-33182     102.5099945       0 
Junction-58113     113.859993       0 
Junction-33744     102.6100006       0 
Junction-23917     84.4500046       0 
Junction-61301     84.5146484       0 
Junction-476582     106       0 
Junction-9502     120.3399963       0 
Junction-60497     113.3099976       0 
Junction-454509     106.4633255       0 
Junction-48824     132.2799988       0 
Junction-466029     104.4799957       0 
Junction-48995     113.0849991       0 
Junction-11197     107.3433456       0 
Junction-464906     101.859993       0 

[RESERVOIRS]
;ID Head
Reservoir-61346        84.5162888 
Reservoir-62451        84.5227661 
Reservoir-62450        84.5295944 

[PIPES]
;ID     Node1       Node2       Length      Diameter        Roughness       MinorLoss       Status
Pipe-43859      Junction-41891     Junction-10396       1.5175219        200      100     0       Open 
Pipe-62626      Junction-62481     Junction-10277       113.41344        200      100     0       Open 
Pipe-545864      Junction-474015     Junction-474016       6.9395776        200      100     0       Open 
Pipe-5669      Junction-61115     Junction-10506       12.980225        200      100     0       Open 
Pipe-13073      Junction-22677     Junction-22678       0.9727058        200      100     0       Open 
Pipe-44214      Junction-11035     Junction-23442       5.6965094        200      100     0       Open 
Pipe-6164      Junction-49377     Junction-11429       20.03765        200      100     0       Open 
Pipe-20075      Junction-32324     Junction-32325       18.087465        200      100     0       Open 
Pipe-28942      Junction-42523     Junction-42525       1.9614173        200      100     0       Open 
Pipe-27924      Junction-9502     Junction-9503       31.412998        200      100     0       Open 
Pipe-28788      Junction-42343     Junction-474623       0.068153135        200      100     0       Open 
Pipe-62614      Junction-11349     Junction-42536       7.3056045        200      100     0       Open 
Pipe-44290      Junction-54507     Junction-49235       18.624496        200      100     0       Open 
Pipe-28372      Junction-41890     Junction-33204       10.941947        200      100     0       Open 
Pipe-28650      Junction-23281     Junction-42194       177.17036        200      100     0       Open 
Pipe-44455      Junction-54616     Junction-42627       4.541141        200      100     0       Open 
Pipe-59666      Junction-34001     Junction-467411       9.761937        200      100     0       Open 
Pipe-550783      Junction-23801     Junction-477554       61.420185        200      100     0       Open 
Pipe-545734      Junction-473877     Junction-473879       0.7588478        200      100     0       Open 
Pipe-51939      Junction-54512     Junction-54510       4.3901505        200      100     0       Open 
Pipe-59000      Junction-60429     Junction-33071       1.0714264        200      100     0       Open 
Pipe-28868      Junction-42434     Junction-42435       14.870047        200      100     0       Open 
Pipe-5013      Junction-9284     Junction-9285       13.532529        200      100     0       Open 
Pipe-6245      Junction-11573     Junction-11574       48.82367        200      100     0       Open 
Pipe-51183      Junction-32870     Junction-54037       2.0978286        200      100     0       Open 
Pipe-545738      Junction-473881     Junction-473883       1.0691324        200      100     0       Open 
Pipe-550310      Junction-477199     Junction-477200       12.014541        200      100     0       Open 
Pipe-51276      Junction-22521     Junction-41705       8.715896        200      100     0       Open 
Pipe-29102      Junction-42677     Junction-42678       9.983039        200      100     0       Open 
Pipe-548865      Junction-474887     Junction-476183       20.249512        200      100     0       Open 
Pipe-43633      Junction-32978     Junction-22524       12.056812        200      100     0       Open 
Pipe-545865      Junction-474014     Junction-474017       3.295553        200      100     0       Open 
Pipe-36285      Junction-48993     Junction-48994       23.00108        200      100     0       Open 
Pipe-27825      Junction-32518     Junction-21978       24.106167        200      100     0       Open 
Pipe-21029      Junction-33574     Junction-23246       9.751878        200      100     0       Open 
Pipe-538610      Junction-48673     Junction-48674       24.192959        200      100     0       Open 
Pipe-28565      Junction-42106     Junction-33465       28.871883        200      100     0       Open 
Pipe-548607      Junction-473947     Junction-476005       1.00902        200      100     0       Open 
Pipe-545929      Junction-473816     Junction-473818       2.2667103        200      100     0       Open 
Pipe-44453      Junction-42626     Junction-58354       4.147152        200      100     0       Open 
Pipe-51584      Junction-58113     Junction-48993       10.887556        200      100     0       Open 
Pipe-13077      Junction-22683     Junction-22684       20.927118        200      100     0       Open 
Pipe-62611      Junction-62477     Junction-62482       186.0337        200      100     0       Open 
Pipe-5464      Junction-10122     Junction-10123       2.730162        200      100     0       Open 
Pipe-529234      Junction-42624     Junction-42625       22.390537        200      100     0       Open 
Pipe-545944      Junction-474083     Junction-473837       36.091866        200      100     0       Open 
Pipe-21048      Junction-33599     Junction-23270       32.862576        200      100     0       Open 
Pipe-526622      Junction-460472     Junction-42185       4.527361        200      100     0       Open 
Pipe-21169      Junction-23424     Junction-463968       15.576319        200      100     0       Open 
Pipe-43922      Junction-10501     Junction-54273       80.59117        200      100     0       Open 
Pipe-550212      Junction-477132     Junction-477133       32.71362        200      100     0       Open 
Pipe-13433      Junction-23246     Junction-60513       14.703597        200      100     0       Open 
Pipe-43392      Junction-9506     Junction-53913       21.408726        200      100     0       Open 
Pipe-36577      Junction-49241     Junction-49242       8.0845785        200      100     0       Open 
Pipe-44201      Junction-49166     Junction-54448       23.356394        200      100     0       Open 
Pipe-51741      Junction-58190     Junction-58191       0.4999087        200      100     0       Open 
Pipe-21429      Junction-34104     Junction-11444       5.2918134        200      100     0       Open 
Pipe-28564      Junction-33463     Junction-42105       31.798939        200      100     0       Open 
[...]
Pipe-5322      -21.8347866      64.0839358 
Pipe-5322      -21.8345238      64.0839093 
Pipe-5322      -21.8345376      64.0838796 
Pipe-21171      -21.8082172      64.0826142 
Pipe-44442      -21.8010357      64.0897609 
Pipe-59577      -21.8062274      64.0924131 
Pipe-59577      -21.8062233      64.0924189 
Pipe-44098      -21.8137172      64.0885974 
Pipe-44098      -21.813756      64.088491 
Pipe-44098      -21.813752      64.0883739 
Pipe-44098      -21.8137023      64.0882791 
Pipe-44098      -21.8135915      64.0881842 
Pipe-44098      -21.8134564      64.088094 
Pipe-44098      -21.8133159      64.0880062 
Pipe-44098      -21.8131727      64.0879199 
Pipe-28952      -21.803602      64.090207 
Pipe-28952      -21.8035841      64.0902113 
Pipe-28952      -21.8035738      64.0902189 
Pipe-28952      -21.8035612      64.0902286 
Pipe-28952      -21.8035324      64.0902527 
Pipe-28952      -21.8035053      64.090276 
Pipe-28952      -21.8034998      64.0902803 
Pipe-28952      -21.803484      64.0902781 
Pipe-28952      -21.8034836      64.0902789 
Pipe-550307      -21.8469465      64.0788686 
Pipe-550307      -21.8469418      64.0788704 
Pipe-550307      -21.8468163      64.0789316 
Pipe-35915      -21.8328753      64.0882079 
Pipe-541671      -21.8158527      64.0938272 
Pipe-541671      -21.816017      64.0939073 
Pipe-541671      -21.8162017      64.093979 
Pipe-541671      -21.8164016      64.0940415 
Pipe-541671      -21.8166195      64.0940926 
Pipe-541671      -21.8168422      64.0941377 
Pipe-541671      -21.8170013      64.0941683 
Pipe-20635      -21.8295437      64.0787928 
Pipe-20635      -21.8295445      64.0787883 
Pipe-20635      -21.8295454      64.0787839 
Pipe-20635      -21.8295651      64.0786735 
Pipe-545684      -21.836042      64.0816156 
Pipe-545684      -21.8360221      64.0816184 
Pipe-58993      -21.8291879      64.0858469 
Pipe-58993      -21.8294019      64.085902 
Pipe-28949      -21.8041251      64.090265 
Pipe-28949      -21.8041755      64.0902705 
Pipe-28949      -21.804244      64.0902773 
Pipe-28949      -21.8042883      64.0902817 
Pipe-51454      -21.826575      64.0869993 
Pipe-43716      -21.829116      64.0839093 
Pipe-43716      -21.8291019      64.0838097 
Pipe-43716      -21.8290557      64.0836257 
Pipe-43993      -21.8158817      64.0822677 
Pipe-43993      -21.8159367      64.0822203 
Pipe-43993      -21.8159975      64.0821731 
Pipe-545791      -21.8358063      64.0808479 
Pipe-545791      -21.8359207      64.0808336 
Pipe-545791      -21.8361584      64.0808044 
Pipe-545791      -21.8363966      64.0807761 
Pipe-5542      -21.8275612      64.080565 
Pipe-5542      -21.8275612      64.080565 
Pipe-5542      -21.8275653      64.0805499 
Pipe-5542      -21.8276504      64.0805517 
Pipe-5542      -21.8276809      64.0804086 
Pipe-550252      -21.8475064      64.0790941 
Pipe-44299      -21.8037031      64.081608 
Pipe-44299      -21.8038106      64.0817058 
Pipe-44299      -21.8039574      64.0817914 
Pipe-44299      -21.8041287      64.0818692 
Pipe-44299      -21.8043352      64.0819417 
Pipe-44299      -21.8043589      64.0819281 
Pipe-44299      -21.8043921      64.0819371 
Pipe-44299      -21.8043712      64.0819517 
Pipe-44299      -21.8045902      64.0820174 
Pipe-44299      -21.8047942      64.0820776 
Pipe-44299      -21.8049992      64.0821373 
Pipe-44299      -21.8051975      64.0822001 
Pipe-44299      -21.8053971      64.0822624 
Pipe-44299      -21.8055961      64.0823247 
Pipe-44299      -21.8057569      64.0823769 
Pipe-44299      -21.8057924      64.0823903 
Pipe-44299      -21.8058487      64.0824146 
Pipe-542673      -21.7989756      64.0913727 
Pipe-542673      -21.7989801      64.0914179 
Pipe-542673      -21.799006      64.0914281 
Pipe-547224      -21.8446461      64.0795009 
Pipe-547224      -21.8447283      64.0794605 
Pipe-547224      -21.8448096      64.0794199 
Pipe-547224      -21.8448899      64.079379 
Pipe-547224      -21.8449733      64.0793388 
Pipe-547224      -21.8449861      64.0793324 
Pipe-547224      -21.8449735      64.0793268 
Pipe-547224      -21.8449723      64.0793262 
Pipe-20807      -21.8236858      64.0806084 
Pipe-58992      -21.8301797      64.0862947 
Pipe-545934      -21.8391786      64.0803355 
Pipe-545934      -21.8392001      64.0803314 
Pipe-62597      -21.8156726      64.0856229 
Pipe-62597      -21.8156965      64.0856194 
Pipe-62597      -21.8159756      64.0855528 
Pipe-62622      -21.810134      64.0875648 
Pipe-21269      -21.8077743      64.0910772 
Pipe-21269      -21.8077719      64.0910747 
Pipe-21269      -21.8078467      64.0910672 
Pipe-21269      -21.8078586      64.0910834 
Pipe-21269      -21.8078898      64.0910791 
Pipe-21269      -21.807878      64.0910629 
Pipe-43992      -21.8169304      64.0816532 
Pipe-43992      -21.8169673      64.0815349 
Pipe-51841      -21.8105552      64.0804362 
Pipe-51841      -21.810604      64.080522 
Pipe-541910      -21.8548704      64.085506 
Pipe-541910      -21.8549233      64.0854755 
Pipe-44220      -21.810292      64.0915165 
Pipe-44220      -21.8102061      64.0915651 
Pipe-44220      -21.8103502      64.0916159 
Pipe-44220      -21.8105376      64.0916825 
Pipe-44220      -21.8107312      64.0917489 
Pipe-44220      -21.8109185      64.0918173 
Pipe-44220      -21.8111141      64.091888 
Pipe-44220      -21.811315      64.0919577 
Pipe-44220      -21.811414      64.0919009 
Pipe-44220      -21.8114861      64.0918602 
Pipe-44220      -21.8116266      64.091898 
Pipe-13432      -21.8138124      64.0807989 
Pipe-13432      -21.8138063      64.0808042 
Pipe-13432      -21.8136055      64.0808641 
Pipe-13432      -21.813406      64.0809304 
Pipe-44309      -21.8047141      64.0879366 
Pipe-547223      -21.8443326      64.0797921 
Pipe-547223      -21.8442085      64.0796995 
Pipe-547223      -21.8441952      64.0796893 
Pipe-550787      -21.7966968      64.0886033 
Pipe-58846      -21.8367161      64.0840349 
Pipe-58846      -21.836814      64.08404 
Pipe-58846      -21.8369283      64.0840457 
Pipe-43855      -21.8219438      64.0830894 
Pipe-43855      -21.821935      64.0830902 
Pipe-541395      -21.850525      64.0861668 
Pipe-538288      -21.8522807      64.0853305 
Pipe-538288      -21.852339      64.0852874 
Pipe-538288      -21.8524007      64.0852428 
Pipe-545805      -21.8380608      64.0813613 
Pipe-545805      -21.8380558      64.0813528 
Pipe-50502      -21.8569816      64.0855866 
Pipe-50502      -21.8569211      64.0856026 
Pipe-50502      -21.8568174      64.0856318 
Pipe-550382      -21.8455309      64.0795473 
Pipe-550382      -21.8455074      64.0795361 
Pipe-550382      -21.8454829      64.0795234 
Pipe-550382      -21.8454774      64.0795087 
Pipe-550382      -21.8454937      64.0794918 
Pipe-550382      -21.8455288      64.0794723 
Pipe-550382      -21.8455664      64.079452 
Pipe-550382      -21.8456072      64.0794318 
Pipe-550382      -21.8456241      64.0794233 
Pipe-550382      -21.845644      64.0794123 
Pipe-550382      -21.845637      64.0794069 
Pipe-550382      -21.845622      64.0794002 
Pipe-51863      -21.8101399      64.0875659 
Pipe-5467      -21.8303357      64.0867277 
Pipe-50898      -21.8474706      64.0856169 
Pipe-50898      -21.8476029      64.085648 
Pipe-50898      -21.8477641      64.0856835 
Pipe-28114      -21.8360558      64.0855126 
Pipe-4724      -21.8553563      64.0852986 
Pipe-4724      -21.8553985      64.0853179 
Pipe-4724      -21.8554465      64.0853429 
Pipe-13717      -21.8026814      64.091351 
Pipe-13717      -21.8026809      64.0913813 
Pipe-13777      -21.7995225      64.0888061 
Pipe-13777      -21.7995142      64.0888133 
Pipe-13777      -21.7993934      64.0889062 
Pipe-13777      -21.7992614      64.0890027 
Pipe-35841      -21.8372437      64.0863113 
Pipe-35841      -21.8374093      64.0862397 
Pipe-35841      -21.8376166      64.0861559 
Pipe-35841      -21.8377961      64.086083 
Pipe-35841      -21.8378943      64.0860415 
Pipe-35841      -21.8381689      64.0860393 
Pipe-35841      -21.8381842      64.0859244 
Pipe-51657      -21.8152623      64.0821189 
Pipe-51657      -21.8153565      64.0821623 
Pipe-5845      -21.8129713      64.0901123 
Pipe-5845      -21.8129293      64.0901757 
Pipe-5845      -21.8132857      64.0902139 
Pipe-5845      -21.8136655      64.0902507 
Pipe-5323      -21.838972      64.0868101 
Pipe-5323      -21.8390115      64.0867362 
Pipe-5323      -21.8390544      64.0866592 
Pipe-5323      -21.8390947      64.086583 
Pipe-28425      -21.8245926      64.0882729 
Pipe-28425      -21.8246536      64.0883778 
Pipe-20569      -21.833582      64.0865797 
Pipe-20569      -21.833438      64.0866552 
Pipe-20569      -21.8331372      64.0867978 
Pipe-20569      -21.8330837      64.0868237 
Pipe-20569      -21.8328891      64.0868533 
Pipe-20569      -21.8327651      64.0869153 
Pipe-20569      -21.8325541      64.0870268 
Pipe-43991      -21.8169757      64.0815302 
Pipe-43991      -21.8169838      64.0815152 
Pipe-43991      -21.8172302      64.0814472 
Pipe-43991      -21.817449      64.0813888 
Pipe-51874      -21.8090906      64.0934876 
Pipe-51874      -21.8089407      64.0935099 
Pipe-51874      -21.8084048      64.0936093 
Pipe-51874      -21.8082498      64.0936448 
Pipe-51874      -21.8079883      64.0937168 
Pipe-51874      -21.8076597      64.0938157 
Pipe-51874      -21.8072992      64.0939295 
Pipe-51874      -21.807039      64.0940135 
Pipe-51874      -21.8068446      64.094083 
Pipe-51874      -21.806746      64.0941214 
Pipe-51874      -21.8065682      64.0941952 
Pipe-51874      -21.8063364      64.0943051 
Pipe-51874      -21.8061484      64.094409 
Pipe-51874      -21.8059965      64.0945036 
Pipe-51874      -21.8058202      64.0946324 
Pipe-51874      -21.8056872      64.0947487 
Pipe-51874      -21.805543      64.094905 
Pipe-51874      -21.8054723      64.0950015 
Pipe-51874      -21.8053964      64.0951308 
Pipe-51874      -21.8053396      64.0952712 
Pipe-51874      -21.8053114      64.0954019 
Pipe-51874      -21.8052991      64.0955457 
Pipe-51874      -21.8053017      64.0956784 
Pipe-51874      -21.805307      64.0958112 
Pipe-51874      -21.8053112      64.0959238 
Pipe-51874      -21.8049455      64.0959248 
Pipe-51874      -21.8047498      64.0959241 
Pipe-51874      -21.8044478      64.0959233 
Pipe-51874      -21.8042217      64.0959218 
Pipe-51874      -21.8041042      64.0959205 
Pipe-51874      -21.8037639      64.0959157 
Pipe-51874      -21.8037595      64.0958549 
Pipe-51874      -21.8036145      64.0958522 
Pipe-51874      -21.803612      64.0958237 
Pipe-51874      -21.8036168      64.0956954 
Pipe-59673      -21.8029096      64.09038 
Pipe-59673      -21.8029699      64.0903892 
Pipe-59673      -21.8030269      64.0903972 
Pipe-59673      -21.8030973      64.0904056 
Pipe-59673      -21.8031455      64.0904109 
Pipe-59673      -21.803205      64.0904177 
Pipe-59673      -21.8032643      64.090425 
Pipe-59673      -21.803325      64.0904326 
Pipe-59673      -21.8033821      64.0904397 
Pipe-59673      -21.8034158      64.0904433 
Pipe-50896      -21.848469      64.0863871 
Pipe-50896      -21.8483932      64.0864284 
Pipe-545333      -21.8439501      64.0847462 
Pipe-549857      -21.8468233      64.0784072 
Pipe-549857      -21.8468125      64.0784073 
Pipe-5327      -21.8371474      64.0863559 
Pipe-548863      -21.8445464      64.0799639 
Pipe-548863      -21.8444867      64.0799115 
Pipe-548863      -21.8444253      64.0798643 
Pipe-548863      -21.8443658      64.0798176 
Pipe-548863      -21.8443431      64.0798 
Pipe-58996      -21.8289754      64.0879909 
Pipe-58996      -21.8288794      64.0879564 
Pipe-58996      -21.8287867      64.0879228 
Pipe-58996      -21.8286744      64.0878817 
Pipe-58996      -21.8285653      64.0879375 
Pipe-20076      -21.8508062      64.0851602 
Pipe-20076      -21.8508543      64.0851258 
Pipe-44294      -21.8041725      64.0808505 
Pipe-44294      -21.8041076      64.0808458 
Pipe-44294      -21.8040002      64.080827 
Pipe-5742      -21.8152134      64.0883072 
Pipe-5742      -21.8155024      64.0883483 
Pipe-5742      -21.8154822      64.0883903 
Pipe-5742      -21.8154384      64.0884486 
Pipe-21356      -21.8038418      64.0901616 
Pipe-21356      -21.8038228      64.0901609 
Pipe-21356      -21.8038058      64.0901641 
Pipe-21356      -21.8037665      64.0901721 
Pipe-21356      -21.8037314      64.090179 
Pipe-21356      -21.803672      64.0901919 
Pipe-21356      -21.8036205      64.0902028 
Pipe-44444      -21.7989729      64.0892099 
Pipe-44444      -21.7989985      64.0891898 
Pipe-44444      -21.7990637      64.0891443 
Pipe-44444      -21.7991954      64.0890529 
Pipe-44444      -21.7992514      64.0890112 
Pipe-28361      -21.8277595      64.0799624 
Pipe-12320      -21.8552377      64.0860779 
Pipe-549456      -21.8439863      64.079304 
Pipe-28764      -21.8087199      64.0818896 
Pipe-59661      -21.8038905      64.0880846 
Pipe-59661      -21.8038957      64.0880811 
Pipe-13786      -21.8004366      64.0928394 
Pipe-545930      -21.8385063      64.0804616 
Pipe-545930      -21.838537      64.080456 
Pipe-528275      -21.8011541      64.0921765 
Pipe-528275      -21.8013476      64.0921817 
Pipe-549430      -21.8463267      64.0786417 
Pipe-549430      -21.8462852      64.0786151 
Pipe-59331      -21.8125744      64.0811707 
Pipe-59331      -21.8124517      64.0811866 
Pipe-28953      -21.8034718      64.0892659 
Pipe-549855      -21.8468582      64.0784199 
Pipe-549855      -21.8468607      64.0784147 
Pipe-44001      -21.8153595      64.0855734 
Pipe-44001      -21.8153202      64.0856016 
Pipe-44001      -21.815204      64.0856962 
Pipe-44001      -21.8150683      64.085786 
Pipe-51730      -21.8126532      64.0811056 
Pipe-51730      -21.8126057      64.0810626 
Pipe-51730      -21.8125338      64.081004 
Pipe-51730      -21.8124555      64.0809612 
Pipe-549522      -21.8440789      64.0792617 
Pipe-549522      -21.844163      64.0792223 
Pipe-549522      -21.8442462      64.0791822 
Pipe-549522      -21.8443315      64.0791431 
Pipe-549522      -21.8444257      64.0791002 
Pipe-549522      -21.8444399      64.0790941 
Pipe-549522      -21.8444268      64.0790871 
Pipe-36482      -21.8074781      64.0800309 
Pipe-13359      -21.8172561      64.0849504 
Pipe-21567      -21.7932892      64.0939581 
Pipe-21567      -21.7931779      64.0939834 
Pipe-21567      -21.7931126      64.0940295 
Pipe-21567      -21.7930087      64.0941235 
Pipe-21567      -21.7929627      64.0941854 
Pipe-43786      -21.8272146      64.0859258 
Pipe-43786      -21.827425      64.0858694 
Pipe-44095      -21.8125716      64.0869811 
Pipe-44095      -21.8128703      64.0868987 
Pipe-44095      -21.8130982      64.0868291 
Pipe-44095      -21.8133587      64.0867262 
Pipe-44095      -21.8135992      64.086627 
Pipe-526628      -21.8128473      64.0868456 
Pipe-59684      -21.8019912      64.0961175 
Pipe-59684      -21.801934      64.0961335 
Pipe-59684      -21.8017546      64.0961326 
Pipe-13076      -21.8309978      64.0890869 
Pipe-44454      -21.7993757      64.0953299 
Pipe-28187      -21.8343822      64.0869308 
Pipe-28187      -21.834234      64.0868449 
Pipe-28187      -21.8340468      64.0867157 
Pipe-28187      -21.8339177      64.0866278 
Pipe-59761      -21.799985      64.096144 
Pipe-59761      -21.7999785      64.0962596 
Pipe-59761      -21.7999743      64.0963672 
Pipe-59761      -21.7999685      64.0964793 
Pipe-59761      -21.7999642      64.096614 
Pipe-59761      -21.7999618      64.0967393 
Pipe-59761      -21.7999571      64.0968627 
Pipe-59761      -21.7996965      64.0968739 
Pipe-59761      -21.7990995      64.0968975 
Pipe-59761      -21.7991019      64.0969247 
Pipe-59761      -21.7991135      64.0970128 
Pipe-528739      -21.8054936      64.0806628 
Pipe-528739      -21.805513      64.0806665 
Pipe-28784      -21.8094877      64.0909835 
Pipe-28784      -21.8094826      64.0909796 
Pipe-28784      -21.8094576      64.0909476 
Pipe-28784      -21.8094511      64.0909389 
Pipe-51947      -21.8065858      64.0826445 
Pipe-28874      -21.8074853      64.0931414 
Pipe-59063      -21.8254765      64.0844051 
Pipe-59063      -21.825784      64.0843566 
Pipe-59063      -21.8261245      64.0843094 
Pipe-59063      -21.8265251      64.0842579 
Pipe-59063      -21.8269656      64.0842018 
Pipe-59063      -21.8272571      64.0841663 
Pipe-59063      -21.8273466      64.0841492 
Pipe-13639      -21.8058661      64.0809104 
Pipe-545737      -21.8406122      64.080073 
Pipe-545737      -21.8406347      64.0800689 
Pipe-59559      -21.80624      64.0813198 
Pipe-59001      -21.8299135      64.0884102 
Pipe-59001      -21.8299059      64.0884082 
Pipe-59001      -21.8298887      64.0883757 
Pipe-6242      -21.797107      64.0920891 
Pipe-6242      -21.797107      64.092089 
Pipe-20956      -21.8139909      64.0864606 
Pipe-20956      -21.8142812      64.0863273 
Pipe-20956      -21.8145147      64.0862272 
Pipe-20956      -21.8147504      64.086111 
Pipe-20956      -21.8149854      64.0860097 
Pipe-20956      -21.8152052      64.0859156 
Pipe-20956      -21.8153919      64.0858411 
Pipe-20956      -21.8155984      64.0857706 
Pipe-20956      -21.8154723      64.0856734 
Pipe-59062      -21.8273375      64.0840963 
Pipe-59062      -21.8273587      64.0840861 
Pipe-51455      -21.8262656      64.0883935 
Pipe-51455      -21.8265832      64.0884206 
Pipe-51455      -21.826991      64.0884405 
Pipe-51455      -21.8274718      64.0884606 
Pipe-13790      -21.8000255      64.0941076 
Pipe-6048      -21.8057894      64.0931273 
Pipe-548775      -21.8448267      64.0801155 
Pipe-548775      -21.8448173      64.0801195 
Pipe-548775      -21.8448134      64.0801246 
Pipe-13641      -21.8046908      64.0806055 
Pipe-13641      -21.8046307      64.080653 
Pipe-13641      -21.8045977      64.0806873 
Pipe-13641      -21.8045567      64.0807325 
Pipe-13796      -21.798615      64.0953131 
Pipe-13796      -21.7986847      64.0953576 
Pipe-13796      -21.7987529      64.095403 
Pipe-13796      -21.7988192      64.0954486 
Pipe-13796      -21.7988302      64.0954554 
Pipe-13796      -21.7988478      64.0954514 
Pipe-13796      -21.7989324      64.0954295 
Pipe-13796      -21.7989496      64.0954255 
Pipe-13796      -21.7989607      64.0954324 
Pipe-13796      -21.7989839      64.0954487 
Pipe-59186      -21.8186148      64.0840659 
Pipe-59186      -21.818606      64.0841003 
Pipe-59186      -21.8185868      64.0841107 
Pipe-43785      -21.8274359      64.0841422 
Pipe-13149      -21.827563      64.084046 
Pipe-13149      -21.8275699      64.0840475 
Pipe-13149      -21.8275951      64.0840429 
Pipe-59807      -21.797038      64.0946196 
Pipe-59807      -21.7969419      64.0945263 
Pipe-28634      -21.8114159      64.0800681 
Pipe-28634      -21.8114319      64.080074 
Pipe-28634      -21.8114523      64.0800726 
Pipe-28634      -21.8115438      64.0800675 
Pipe-28634      -21.8116648      64.0800596 
Pipe-28634      -21.8117893      64.0800534 
Pipe-28634      -21.8119122      64.0800478 
Pipe-28634      -21.8120325      64.0800427 
Pipe-28634      -21.8121568      64.0800344 
Pipe-28634      -21.8122774      64.0800221 
Pipe-43791      -21.8268445      64.0879489 
Pipe-43791      -21.8268544      64.0879428 
Pipe-43791      -21.826833      64.0879351 
Pipe-12975      -21.8350642      64.0847829 
Pipe-548912      -21.8456987      64.0799596 
Pipe-51948      -21.8068193      64.0874314 
Pipe-51858      -21.8111844      64.0863539 
Pipe-28787      -21.810193      64.0956068 
Pipe-548951      -21.8444192      64.0790875 
Pipe-548951      -21.8443914      64.0790685 
Pipe-548951      -21.8443754      64.0790578 
Pipe-548951      -21.8443794      64.0790486 
Pipe-548951      -21.8443821      64.0790404 
Pipe-548951      -21.8444674      64.0789924 
Pipe-548951      -21.8445654      64.0789385 

